*SPEF "ieee 1481-1999"
*DESIGN "ternary_cpu_system"
*DATE "22:46:21 Friday December 26, 2025"
*VENDOR "The OpenROAD Project"
*PROGRAM "OpenROAD"
*VERSION "24Q3-11661-g86b9236cdd"
*DESIGN_FLOW "NAME_SCOPE LOCAL" "PIN_CAP NONE"
*DIVIDER /
*DELIMITER :
*BUS_DELIMITER []
*T_UNIT 1 NS
*C_UNIT 1 PF
*R_UNIT 1 OHM
*L_UNIT 1 HENRY

*NAME_MAP
*1 _000_
*2 _001_
*3 _002_
*4 _003_
*5 _004_
*6 _005_
*7 _006_
*8 _007_
*9 _008_
*10 _009_
*11 _010_
*12 _011_
*13 _012_
*14 _013_
*15 _014_
*16 _015_
*17 _016_
*18 _017_
*19 _018_
*20 _019_
*21 _020_
*22 _021_
*23 _022_
*24 _023_
*25 _024_
*26 _025_
*27 _026_
*28 _027_
*29 _028_
*30 _029_
*31 _030_
*32 _031_
*33 _032_
*34 _033_
*35 _034_
*36 _035_
*37 _036_
*38 _037_
*39 _038_
*40 _039_
*41 _040_
*42 _041_
*43 _042_
*44 _043_
*45 _044_
*46 _045_
*47 _046_
*48 _047_
*49 _048_
*50 _049_
*51 _050_
*52 _051_
*53 _052_
*54 _053_
*55 _054_
*56 _055_
*57 _056_
*58 _057_
*59 _058_
*60 _059_
*61 _060_
*62 _061_
*63 _062_
*64 _063_
*65 _064_
*66 _065_
*67 _066_
*68 _067_
*69 _068_
*70 _069_
*71 _070_
*72 _071_
*73 _072_
*74 _073_
*75 _074_
*76 _075_
*77 _076_
*78 _077_
*79 _078_
*80 _079_
*81 _080_
*82 _081_
*83 _082_
*84 _083_
*85 _084_
*86 _085_
*87 _086_
*88 _087_
*89 _088_
*90 _089_
*91 _090_
*92 _091_
*93 _092_
*94 _093_
*95 _094_
*96 _095_
*97 _096_
*98 _097_
*99 _098_
*100 _099_
*101 _100_
*102 _101_
*103 _102_
*104 _103_
*105 _104_
*106 _105_
*107 _106_
*108 _107_
*109 _108_
*110 _109_
*111 _110_
*112 _111_
*113 _112_
*114 _113_
*115 _114_
*116 _115_
*117 _116_
*118 _117_
*119 _118_
*120 _119_
*121 _120_
*122 _121_
*123 _122_
*124 _123_
*125 _124_
*126 _125_
*127 _126_
*128 _127_
*129 _128_
*130 _129_
*131 _130_
*132 _131_
*133 _132_
*134 _133_
*135 _134_
*136 _135_
*137 _136_
*138 _137_
*139 _138_
*140 _139_
*141 _140_
*142 _141_
*143 _142_
*145 _144_
*146 _145_
*148 _147_
*149 _148_
*150 _149_
*152 _151_
*153 _152_
*154 _153_
*155 _154_
*156 _155_
*157 _156_
*158 _157_
*159 _158_
*160 _159_
*161 _160_
*162 _161_
*163 _162_
*164 _163_
*165 _164_
*166 _165_
*167 _166_
*168 _167_
*169 _168_
*170 _169_
*171 _170_
*172 _171_
*173 _172_
*174 _173_
*175 _174_
*176 _175_
*177 _176_
*178 _177_
*179 _178_
*180 _179_
*181 _180_
*182 _181_
*183 _182_
*184 _183_
*185 _184_
*186 _185_
*187 _186_
*188 _187_
*189 _188_
*190 _189_
*191 _190_
*192 _191_
*193 _192_
*194 _193_
*195 _194_
*196 _195_
*197 _196_
*198 _197_
*199 _198_
*200 _199_
*201 _200_
*202 _201_
*203 _202_
*204 _203_
*205 _204_
*206 _205_
*207 _206_
*208 _207_
*209 _208_
*210 _209_
*211 _210_
*212 _211_
*213 _212_
*214 _213_
*215 _214_
*216 _215_
*217 _216_
*218 _217_
*219 _218_
*220 _219_
*221 _220_
*222 _221_
*223 _222_
*224 _223_
*225 _224_
*226 _225_
*227 _226_
*228 _227_
*229 _228_
*230 _229_
*231 _230_
*232 _231_
*233 _232_
*234 _233_
*235 _234_
*236 _235_
*237 _236_
*239 net68
*240 clk
*241 debug_reg_addr[0]
*242 debug_reg_addr[1]
*243 debug_reg_addr[2]
*244 debug_reg_addr[3]
*245 debug_reg_data[0]
*246 debug_reg_data[10]
*247 debug_reg_data[11]
*248 debug_reg_data[12]
*249 debug_reg_data[13]
*250 debug_reg_data[14]
*251 debug_reg_data[15]
*252 debug_reg_data[16]
*253 debug_reg_data[17]
*254 debug_reg_data[18]
*255 debug_reg_data[19]
*256 debug_reg_data[1]
*257 debug_reg_data[20]
*258 debug_reg_data[21]
*259 debug_reg_data[22]
*260 debug_reg_data[23]
*261 debug_reg_data[24]
*262 debug_reg_data[25]
*263 debug_reg_data[26]
*264 debug_reg_data[27]
*265 debug_reg_data[28]
*266 debug_reg_data[29]
*267 debug_reg_data[2]
*268 debug_reg_data[30]
*269 debug_reg_data[31]
*270 debug_reg_data[32]
*271 debug_reg_data[33]
*272 debug_reg_data[34]
*273 debug_reg_data[35]
*274 debug_reg_data[36]
*275 debug_reg_data[37]
*276 debug_reg_data[38]
*277 debug_reg_data[39]
*278 debug_reg_data[3]
*279 debug_reg_data[40]
*280 debug_reg_data[41]
*281 debug_reg_data[42]
*282 debug_reg_data[43]
*283 debug_reg_data[44]
*284 debug_reg_data[45]
*285 debug_reg_data[46]
*286 debug_reg_data[47]
*287 debug_reg_data[48]
*288 debug_reg_data[49]
*289 debug_reg_data[4]
*290 debug_reg_data[50]
*291 debug_reg_data[51]
*292 debug_reg_data[52]
*293 debug_reg_data[53]
*294 debug_reg_data[5]
*295 debug_reg_data[6]
*296 debug_reg_data[7]
*297 debug_reg_data[8]
*298 debug_reg_data[9]
*299 halted
*300 ipc_out[0]
*301 net76
*302 net77
*303 net78
*304 net79
*305 net80
*306 net81
*307 net82
*308 net83
*309 net84
*310 net85
*311 net86
*312 net87
*313 net88
*314 net89
*315 net90
*316 net91
*317 net92
*318 prog_addr[0]
*319 prog_addr[1]
*320 prog_addr[2]
*321 prog_addr[3]
*322 prog_addr[4]
*323 prog_addr[5]
*324 prog_addr[6]
*325 prog_addr[7]
*326 prog_data[0]
*327 prog_data[10]
*328 prog_data[11]
*329 prog_data[12]
*330 prog_data[13]
*331 prog_data[14]
*332 prog_data[15]
*333 prog_data[16]
*334 prog_data[17]
*335 prog_data[1]
*336 prog_data[2]
*337 prog_data[3]
*338 prog_data[4]
*339 prog_data[5]
*340 prog_data[6]
*341 prog_data[7]
*342 prog_data[8]
*343 prog_data[9]
*344 prog_mode
*345 prog_we
*346 rst_n
*347 u_cpu\.ex_wb_reg_write_a
*348 net75
*349 u_cpu\.next_pc\[0\]
*350 u_cpu\.next_pc\[10\]
*351 u_cpu\.next_pc\[11\]
*352 u_cpu\.next_pc\[12\]
*353 u_cpu\.next_pc\[13\]
*354 u_cpu\.next_pc\[14\]
*355 u_cpu\.next_pc\[15\]
*356 u_cpu\.next_pc\[1\]
*357 u_cpu\.next_pc\[2\]
*358 u_cpu\.next_pc\[3\]
*359 u_cpu\.next_pc\[4\]
*360 u_cpu\.next_pc\[5\]
*361 u_cpu\.next_pc\[6\]
*362 u_cpu\.next_pc\[7\]
*363 u_cpu\.next_pc\[8\]
*364 u_cpu\.next_pc\[9\]
*365 net93
*366 clknet_0_clk
*367 net
*368 net1
*369 net2
*370 net3
*371 net4
*372 net5
*373 net6
*374 net7
*375 net8
*376 net9
*377 net10
*378 net11
*411 clknet_1_1__leaf_clk
*412 clknet_1_0__leaf_clk
*413 net98
*414 net97
*415 net96
*416 valid_out_b
*417 valid_out_a
*418 pc_out[9]
*419 pc_out[8]
*420 pc_out[7]
*421 pc_out[6]
*422 pc_out[5]
*423 pc_out[4]
*424 pc_out[3]
*425 pc_out[2]
*426 pc_out[1]
*427 pc_out[15]
*428 pc_out[14]
*429 pc_out[13]
*430 pc_out[12]
*431 pc_out[11]
*432 pc_out[10]
*433 pc_out[0]
*434 ipc_out[1]
*435 net69
*436 net70
*437 net71
*438 net72
*439 net73
*440 net74
*441 _239_
*442 _240_
*443 _241_
*444 _242_
*445 _243_
*446 _244_
*447 _245_
*448 _246_
*449 _247_
*450 _248_
*451 _249_
*452 _250_
*453 _251_
*454 _252_
*455 _253_
*456 _254_
*457 _255_
*458 _256_
*459 _257_
*460 _258_
*461 _259_
*462 _260_
*463 _261_
*464 _262_
*465 _263_
*466 _264_
*467 _265_
*468 _266_
*469 _267_
*470 _268_
*471 _269_
*472 _270_
*473 _271_
*474 _272_
*475 _273_
*476 _274_
*477 _275_
*478 _276_
*479 _277_
*480 _278_
*481 _279_
*482 _280_
*483 _281_
*484 _282_
*485 _283_
*486 _284_
*487 _285_
*488 _286_
*489 _287_
*490 _288_
*491 _289_
*492 _290_
*493 _291_
*494 _292_
*495 _293_
*496 _294_
*497 _295_
*498 _296_
*499 _297_
*500 _298_
*501 _299_
*502 _300_
*503 _301_
*504 _302_
*505 _303_
*506 _304_
*507 _305_
*508 FILLER_1_28
*509 _307_
*510 _308_
*511 _309_
*512 FILLER_1_24
*513 _311_
*514 _312_
*515 _313_
*516 FILLER_1_16
*517 _315_
*518 _316_
*519 _317_
*520 _318_
*521 _319_
*522 _320_
*523 _321_
*524 _322_
*525 _323_
*526 _324_
*527 _325_
*528 _326_
*529 _327_
*530 _328_
*531 _329_
*532 _330_
*533 _331_
*534 _332_
*535 _333_
*536 _334_
*537 _335_
*538 _336_
*539 _337_
*540 _338_
*541 _339_
*542 _340_
*543 _341_
*544 _342_
*545 _343_
*546 _344_
*547 _345_
*548 _346_
*549 _347_
*550 _348_
*551 _349_
*552 _350_
*553 _351_
*554 _352_
*555 _353_
*556 _354_
*557 _355_
*558 _356_
*559 _357_
*560 _358_
*561 _359_
*562 _360_
*563 _361_
*564 _362_
*565 _363_
*566 _364_
*567 _365_
*568 _366_
*569 _367_
*570 _368_
*571 _369_
*572 _370_
*573 _371_
*574 _372_
*575 _373_
*576 _374_
*577 _375_
*578 _376_
*579 _377_
*580 _378_
*581 _379_
*582 _380_
*583 _381_
*584 _382_
*585 _383_
*586 _384_
*587 _385_
*588 _386_
*589 _387_
*590 _388_
*591 _389_
*592 _390_
*593 _391_
*594 _392_
*595 _393_
*596 _394_
*597 _395_
*598 _396_
*599 _397_
*600 _398_
*601 _399_
*602 _400_
*603 _401_
*604 _402_
*605 _403_
*606 _404_
*607 _405_
*608 _406_
*609 _407_
*610 _408_
*611 _409_
*612 _410_
*613 _411_
*614 _412_
*615 _413_
*616 _414_
*617 _415_
*618 _416_
*619 _417_
*620 _418_
*621 _419_
*622 _420_
*623 _421_
*624 _422_
*625 _423_
*626 _424_
*627 _425_
*628 _426_
*629 _427_
*630 _428_
*631 _429_
*632 _430_
*633 _431_
*634 _432_
*635 _433_
*636 _434_
*637 _435_
*638 _436_
*639 _437_
*640 _438_
*641 _439_
*642 TAP_TAPCELL_ROW_0_0
*643 _389__69
*644 FILLER_1_8
*645 FILLER_1_0
*646 FILLER_0_159
*647 FILLER_0_151
*648 FILLER_0_142
*649 FILLER_0_137
*650 FILLER_0_124
*651 FILLER_0_118
*652 FILLER_0_114
*653 FILLER_0_110
*654 FILLER_0_106
*655 FILLER_0_102
*656 FILLER_0_98
*657 FILLER_0_94
*658 FILLER_0_82
*659 FILLER_0_78
*660 FILLER_0_74
*661 FILLER_0_67
*662 FILLER_0_63
*663 FILLER_0_61
*664 FILLER_0_56
*665 FILLER_0_52
*666 FILLER_0_42
*667 FILLER_0_40
*668 FILLER_0_26
*669 FILLER_0_22
*670 FILLER_0_18
*671 FILLER_0_10
*672 FILLER_0_6
*673 FILLER_0_4
*674 FILLER_0_0
*675 clkload0
*676 clkbuf_1_1__f_clk
*677 clkbuf_1_0__f_clk
*678 place99
*679 place98
*680 place97
*681 output95
*682 output94
*683 output93
*684 output92
*685 output91
*686 output90
*687 output89
*688 output88
*689 output87
*690 output86
*691 output85
*692 output84
*693 output83
*694 output82
*695 output81
*696 output80
*697 output79
*698 output78
*699 output77
*700 input76
*701 clkbuf_0_clk
*702 u_cpu\.id_ex_reg_write_a\$_DFF_PN0_
*703 u_cpu\.id_ex_valid_a\$_DFF_PN0_
*704 u_cpu\.imem_addr\[0\]\$_DFF_PN0_
*705 u_cpu\.imem_addr\[10\]\$_DFF_PN0_
*706 u_cpu\.imem_addr\[11\]\$_DFF_PN0_
*707 u_cpu\.imem_addr\[12\]\$_DFF_PN0_
*708 u_cpu\.imem_addr\[13\]\$_DFF_PN0_
*709 u_cpu\.imem_addr\[14\]\$_DFF_PN0_
*710 u_cpu\.imem_addr\[15\]\$_DFF_PN0_
*711 u_cpu\.imem_addr\[1\]\$_DFF_PN0_
*712 u_cpu\.imem_addr\[2\]\$_DFF_PN0_
*713 u_cpu\.imem_addr\[3\]\$_DFF_PN0_
*714 u_cpu\.imem_addr\[4\]\$_DFF_PN0_
*715 u_cpu\.imem_addr\[5\]\$_DFF_PN0_
*716 u_cpu\.imem_addr\[6\]\$_DFF_PN0_
*717 u_cpu\.imem_addr\[7\]\$_DFF_PN0_
*718 u_cpu\.imem_addr\[8\]\$_DFF_PN0_
*719 u_cpu\.imem_addr\[9\]\$_DFF_PN0_
*720 u_cpu\.valid_out_a\$_DFF_PN0_
*721 _389__1
*722 _390__2
*723 _395__3
*724 _396__4
*725 _397__5
*726 _398__6
*727 _399__7
*728 _400__8
*729 _401__9
*730 _402__10
*731 _403__11
*732 _404__12
*733 _442__13
*734 _443__14
*735 _444__15
*736 _445__16
*737 _446__17
*738 _447__18
*739 _448__19
*740 _449__20
*741 _450__21
*742 _451__22
*743 _452__23
*744 _453__24
*745 _454__25
*746 _455__26
*747 _456__27
*748 _457__28
*749 _458__29
*750 _459__30
*751 _460__31
*752 _461__32
*753 _462__33
*754 _463__34
*755 _464__35
*756 _465__36
*757 _466__37
*758 _467__38
*759 _468__39
*760 _469__40
*761 _470__41
*762 _471__42
*763 _472__43
*764 _473__44
*765 _474__45
*766 _475__46
*767 _476__47
*768 _477__48
*769 _478__49
*770 _479__50
*771 _480__51
*772 _481__52
*773 _482__53
*774 _483__54
*775 _484__55
*776 _485__56
*777 _486__57
*778 _487__58
*779 _488__59
*780 _489__60
*781 _490__61
*782 _491__62
*783 _492__63
*784 _493__64
*785 _494__65
*786 _495__66
*787 _496__67
*788 _497__68
*789 _390__70
*790 _391__71
*791 _392__72
*792 _393__73
*793 _394__74
*794 u_cpu\.id_ex_reg_write_a\$_DFF_PN0__75
*795 TAP_TAPCELL_ROW_0_1
*796 TAP_TAPCELL_ROW_0_2
*797 TAP_TAPCELL_ROW_0_3
*798 TAP_TAPCELL_ROW_0_4
*799 TAP_TAPCELL_ROW_1_5
*800 TAP_TAPCELL_ROW_1_6
*801 TAP_TAPCELL_ROW_2_7
*802 TAP_TAPCELL_ROW_2_8
*803 TAP_TAPCELL_ROW_2_9
*804 TAP_TAPCELL_ROW_3_10
*805 TAP_TAPCELL_ROW_3_11
*806 TAP_TAPCELL_ROW_4_12
*807 TAP_TAPCELL_ROW_4_13
*808 TAP_TAPCELL_ROW_4_14
*809 TAP_TAPCELL_ROW_5_15
*810 TAP_TAPCELL_ROW_5_16
*811 TAP_TAPCELL_ROW_6_17
*812 TAP_TAPCELL_ROW_6_18
*813 TAP_TAPCELL_ROW_6_19
*814 TAP_TAPCELL_ROW_7_20
*815 TAP_TAPCELL_ROW_7_21
*816 TAP_TAPCELL_ROW_8_22
*817 TAP_TAPCELL_ROW_8_23
*818 TAP_TAPCELL_ROW_8_24
*819 TAP_TAPCELL_ROW_9_25
*820 TAP_TAPCELL_ROW_9_26
*821 TAP_TAPCELL_ROW_10_27
*822 TAP_TAPCELL_ROW_10_28
*823 TAP_TAPCELL_ROW_10_29
*824 TAP_TAPCELL_ROW_11_30
*825 TAP_TAPCELL_ROW_11_31
*826 TAP_TAPCELL_ROW_12_32
*827 TAP_TAPCELL_ROW_12_33
*828 TAP_TAPCELL_ROW_12_34
*829 TAP_TAPCELL_ROW_13_35
*830 TAP_TAPCELL_ROW_13_36
*831 TAP_TAPCELL_ROW_14_37
*832 TAP_TAPCELL_ROW_14_38
*833 TAP_TAPCELL_ROW_14_39
*834 TAP_TAPCELL_ROW_15_40
*835 TAP_TAPCELL_ROW_15_41
*836 TAP_TAPCELL_ROW_16_42
*837 TAP_TAPCELL_ROW_16_43
*838 TAP_TAPCELL_ROW_16_44
*839 TAP_TAPCELL_ROW_17_45
*840 TAP_TAPCELL_ROW_17_46
*841 TAP_TAPCELL_ROW_18_47
*842 TAP_TAPCELL_ROW_18_48
*843 TAP_TAPCELL_ROW_18_49
*844 TAP_TAPCELL_ROW_19_50
*845 TAP_TAPCELL_ROW_19_51
*846 TAP_TAPCELL_ROW_20_52
*847 TAP_TAPCELL_ROW_20_53
*848 TAP_TAPCELL_ROW_20_54
*849 TAP_TAPCELL_ROW_21_55
*850 TAP_TAPCELL_ROW_21_56
*851 TAP_TAPCELL_ROW_22_57
*852 TAP_TAPCELL_ROW_22_58
*853 TAP_TAPCELL_ROW_22_59
*854 TAP_TAPCELL_ROW_23_60
*855 TAP_TAPCELL_ROW_23_61
*856 TAP_TAPCELL_ROW_24_62
*857 TAP_TAPCELL_ROW_24_63
*858 TAP_TAPCELL_ROW_24_64
*859 TAP_TAPCELL_ROW_25_65
*860 TAP_TAPCELL_ROW_25_66
*861 TAP_TAPCELL_ROW_25_67
*862 TAP_TAPCELL_ROW_25_68
*863 TAP_TAPCELL_ROW_25_69
*864 FILLER_1_32
*865 FILLER_1_40
*866 FILLER_1_48
*867 FILLER_1_69
*868 FILLER_1_77
*869 FILLER_1_84
*870 FILLER_1_92
*871 FILLER_1_100
*872 FILLER_1_108
*873 FILLER_1_116
*874 FILLER_1_121
*875 FILLER_1_129
*876 FILLER_1_137
*877 FILLER_1_145
*878 FILLER_1_153
*879 FILLER_1_158
*880 FILLER_1_160
*881 FILLER_2_3
*882 FILLER_2_11
*883 FILLER_2_19
*884 FILLER_2_27
*885 FILLER_2_29
*886 FILLER_2_31
*887 FILLER_2_68
*888 FILLER_2_72
*889 FILLER_2_91
*890 FILLER_2_96
*891 FILLER_2_104
*892 FILLER_2_112
*893 FILLER_2_120
*894 FILLER_2_128
*895 FILLER_2_136
*896 FILLER_2_144
*897 FILLER_2_148
*898 FILLER_2_151
*899 FILLER_2_155
*900 FILLER_2_157
*901 FILLER_3_6
*902 FILLER_3_14
*903 FILLER_3_22
*904 FILLER_3_30
*905 FILLER_3_34
*906 FILLER_3_36
*907 FILLER_3_61
*908 FILLER_3_69
*909 FILLER_3_73
*910 FILLER_3_104
*911 FILLER_3_112
*912 FILLER_3_125
*913 FILLER_3_146
*914 FILLER_3_150
*915 FILLER_3_160
*916 FILLER_4_6
*917 FILLER_4_14
*918 FILLER_4_22
*919 FILLER_4_31
*920 FILLER_4_39
*921 FILLER_4_48
*922 FILLER_4_52
*923 FILLER_4_54
*924 FILLER_4_71
*925 FILLER_4_75
*926 FILLER_4_83
*927 FILLER_4_87
*928 FILLER_4_89
*929 FILLER_4_101
*930 FILLER_4_105
*931 FILLER_4_119
*932 FILLER_4_127
*933 FILLER_4_129
*934 FILLER_4_151
*935 FILLER_4_155
*936 FILLER_4_157
*937 FILLER_5_3
*938 FILLER_5_11
*939 FILLER_5_19
*940 FILLER_5_27
*941 FILLER_5_32
*942 FILLER_5_48
*943 FILLER_5_67
*944 FILLER_5_75
*945 FILLER_5_86
*946 FILLER_5_100
*947 FILLER_5_107
*948 FILLER_5_109
*949 FILLER_5_113
*950 FILLER_5_117
*951 FILLER_5_119
*952 FILLER_5_124
*953 FILLER_5_128
*954 FILLER_5_130
*955 FILLER_5_147
*956 FILLER_5_149
*957 FILLER_5_158
*958 FILLER_5_160
*959 FILLER_6_6
*960 FILLER_6_14
*961 FILLER_6_22
*962 FILLER_6_31
*963 FILLER_6_44
*964 FILLER_6_52
*965 FILLER_6_56
*966 FILLER_6_58
*967 FILLER_6_72
*968 FILLER_6_74
*969 FILLER_6_78
*970 FILLER_6_82
*971 FILLER_6_91
*972 FILLER_6_93
*973 FILLER_6_97
*974 FILLER_6_131
*975 FILLER_6_139
*976 FILLER_6_143
*977 FILLER_6_159
*978 FILLER_7_3
*979 FILLER_7_11
*980 FILLER_7_19
*981 FILLER_7_27
*982 FILLER_7_31
*983 FILLER_7_33
*984 FILLER_7_61
*985 FILLER_7_71
*986 FILLER_7_73
*987 FILLER_7_84
*988 FILLER_7_96
*989 FILLER_7_104
*990 FILLER_7_112
*991 FILLER_7_121
*992 FILLER_7_125
*993 FILLER_7_129
*994 FILLER_7_150
*995 FILLER_8_3
*996 FILLER_8_11
*997 FILLER_8_19
*998 FILLER_8_27
*999 FILLER_8_29
*1000 FILLER_8_31
*1001 FILLER_8_35
*1002 FILLER_8_42
*1003 FILLER_8_44
*1004 FILLER_8_64
*1005 FILLER_8_72
*1006 FILLER_8_76
*1007 FILLER_8_80
*1008 FILLER_8_88
*1009 FILLER_8_97
*1010 FILLER_8_105
*1011 FILLER_8_113
*1012 FILLER_8_135
*1013 FILLER_8_143
*1014 FILLER_8_148
*1015 FILLER_8_159
*1016 FILLER_9_3
*1017 FILLER_9_8
*1018 FILLER_9_10
*1019 FILLER_9_14
*1020 FILLER_9_22
*1021 FILLER_9_30
*1022 FILLER_9_38
*1023 FILLER_9_46
*1024 FILLER_9_50
*1025 FILLER_9_57
*1026 FILLER_9_59
*1027 FILLER_9_61
*1028 FILLER_9_63
*1029 FILLER_9_80
*1030 FILLER_9_93
*1031 FILLER_9_117
*1032 FILLER_9_119
*1033 FILLER_9_121
*1034 FILLER_9_123
*1035 FILLER_9_134
*1036 FILLER_9_142
*1037 FILLER_9_150
*1038 FILLER_9_158
*1039 FILLER_9_160
*1040 FILLER_10_9
*1041 FILLER_10_31
*1042 FILLER_10_39
*1043 FILLER_10_41
*1044 FILLER_10_52
*1045 FILLER_10_57
*1046 FILLER_10_65
*1047 FILLER_10_69
*1048 FILLER_10_77
*1049 FILLER_10_85
*1050 FILLER_10_91
*1051 FILLER_10_99
*1052 FILLER_10_107
*1053 FILLER_10_109
*1054 FILLER_10_136
*1055 FILLER_10_148
*1056 FILLER_10_151
*1057 FILLER_10_159
*1058 FILLER_11_3
*1059 FILLER_11_25
*1060 FILLER_11_49
*1061 FILLER_11_80
*1062 FILLER_11_100
*1063 FILLER_11_115
*1064 FILLER_11_119
*1065 FILLER_11_126
*1066 FILLER_11_133
*1067 FILLER_11_157
*1068 FILLER_12_16
*1069 FILLER_12_20
*1070 FILLER_12_31
*1071 FILLER_12_39
*1072 FILLER_12_41
*1073 FILLER_12_55
*1074 FILLER_12_63
*1075 FILLER_12_67
*1076 FILLER_12_80
*1077 FILLER_12_88
*1078 FILLER_12_91
*1079 FILLER_12_102
*1080 FILLER_12_104
*1081 FILLER_12_121
*1082 FILLER_12_123
*1083 FILLER_12_134
*1084 FILLER_12_142
*1085 FILLER_12_159
*1086 FILLER_13_3
*1087 FILLER_13_11
*1088 FILLER_13_15
*1089 FILLER_13_27
*1090 FILLER_13_36
*1091 FILLER_13_58
*1092 FILLER_13_61
*1093 FILLER_13_69
*1094 FILLER_13_98
*1095 FILLER_13_110
*1096 FILLER_13_118
*1097 FILLER_13_121
*1098 FILLER_13_129
*1099 FILLER_13_133
*1100 FILLER_13_135
*1101 FILLER_13_156
*1102 FILLER_13_160
*1103 FILLER_14_6
*1104 FILLER_14_14
*1105 FILLER_14_22
*1106 FILLER_14_27
*1107 FILLER_14_29
*1108 FILLER_14_31
*1109 FILLER_14_35
*1110 FILLER_14_56
*1111 FILLER_14_64
*1112 FILLER_14_68
*1113 FILLER_14_89
*1114 FILLER_14_97
*1115 FILLER_14_105
*1116 FILLER_14_112
*1117 FILLER_14_120
*1118 FILLER_14_124
*1119 FILLER_14_145
*1120 FILLER_14_149
*1121 FILLER_14_151
*1122 FILLER_15_3
*1123 FILLER_15_11
*1124 FILLER_15_25
*1125 FILLER_15_32
*1126 FILLER_15_40
*1127 FILLER_15_68
*1128 FILLER_15_72
*1129 FILLER_15_89
*1130 FILLER_15_124
*1131 FILLER_15_132
*1132 FILLER_15_140
*1133 FILLER_15_150
*1134 FILLER_15_152
*1135 FILLER_16_3
*1136 FILLER_16_7
*1137 FILLER_16_23
*1138 FILLER_16_31
*1139 FILLER_16_33
*1140 FILLER_16_37
*1141 FILLER_16_48
*1142 FILLER_16_60
*1143 FILLER_16_68
*1144 FILLER_16_76
*1145 FILLER_16_78
*1146 FILLER_16_88
*1147 FILLER_16_91
*1148 FILLER_16_93
*1149 FILLER_16_97
*1150 FILLER_16_105
*1151 FILLER_16_109
*1152 FILLER_16_151
*1153 FILLER_16_159
*1154 FILLER_17_11
*1155 FILLER_17_13
*1156 FILLER_17_26
*1157 FILLER_17_30
*1158 FILLER_17_32
*1159 FILLER_17_43
*1160 FILLER_17_47
*1161 FILLER_17_49
*1162 FILLER_17_61
*1163 FILLER_17_69
*1164 FILLER_17_77
*1165 FILLER_17_82
*1166 FILLER_17_86
*1167 FILLER_17_94
*1168 FILLER_17_102
*1169 FILLER_17_131
*1170 FILLER_17_133
*1171 FILLER_17_137
*1172 FILLER_17_145
*1173 FILLER_17_149
*1174 FILLER_17_159
*1175 FILLER_18_0
*1176 FILLER_18_9
*1177 FILLER_18_67
*1178 FILLER_18_75
*1179 FILLER_18_77
*1180 FILLER_18_81
*1181 FILLER_18_89
*1182 FILLER_18_91
*1183 FILLER_18_125
*1184 FILLER_18_139
*1185 FILLER_18_147
*1186 FILLER_18_149
*1187 FILLER_18_159
*1188 FILLER_19_0
*1189 FILLER_19_8
*1190 FILLER_19_16
*1191 FILLER_19_24
*1192 FILLER_19_32
*1193 FILLER_19_40
*1194 FILLER_19_44
*1195 FILLER_19_51
*1196 FILLER_19_55
*1197 FILLER_19_64
*1198 FILLER_19_72
*1199 FILLER_19_83
*1200 FILLER_19_91
*1201 FILLER_19_99
*1202 FILLER_19_107
*1203 FILLER_19_115
*1204 FILLER_19_119
*1205 FILLER_19_121
*1206 FILLER_19_123
*1207 FILLER_19_129
*1208 FILLER_19_151
*1209 FILLER_19_159
*1210 FILLER_20_0
*1211 FILLER_20_8
*1212 FILLER_20_13
*1213 FILLER_20_23
*1214 FILLER_20_31
*1215 FILLER_20_52
*1216 FILLER_20_60
*1217 FILLER_20_64
*1218 FILLER_20_91
*1219 FILLER_20_96
*1220 FILLER_20_98
*1221 FILLER_20_103
*1222 FILLER_20_107
*1223 FILLER_20_127
*1224 FILLER_20_131
*1225 FILLER_20_136
*1226 FILLER_20_141
*1227 FILLER_20_149
*1228 FILLER_20_151
*1229 FILLER_20_159
*1230 FILLER_21_0
*1231 FILLER_21_4
*1232 FILLER_21_30
*1233 FILLER_21_37
*1234 FILLER_21_41
*1235 FILLER_21_51
*1236 FILLER_21_59
*1237 FILLER_21_77
*1238 FILLER_21_84
*1239 FILLER_21_101
*1240 FILLER_21_115
*1241 FILLER_21_121
*1242 FILLER_21_130
*1243 FILLER_21_147
*1244 FILLER_21_155
*1245 FILLER_21_159
*1246 FILLER_22_0
*1247 FILLER_22_8
*1248 FILLER_22_10
*1249 FILLER_22_14
*1250 FILLER_22_22
*1251 FILLER_22_31
*1252 FILLER_22_39
*1253 FILLER_22_47
*1254 FILLER_22_55
*1255 FILLER_22_63
*1256 FILLER_22_71
*1257 FILLER_22_82
*1258 FILLER_22_84
*1259 FILLER_22_91
*1260 FILLER_22_95
*1261 FILLER_22_97
*1262 FILLER_22_101
*1263 FILLER_22_105
*1264 FILLER_22_107
*1265 FILLER_22_124
*1266 FILLER_22_132
*1267 FILLER_22_140
*1268 FILLER_22_148
*1269 FILLER_22_151
*1270 FILLER_22_159
*1271 FILLER_23_0
*1272 FILLER_23_4
*1273 FILLER_23_12
*1274 FILLER_23_20
*1275 FILLER_23_24
*1276 FILLER_23_45
*1277 FILLER_23_53
*1278 FILLER_23_57
*1279 FILLER_23_59
*1280 FILLER_23_69
*1281 FILLER_23_77
*1282 FILLER_23_99
*1283 FILLER_23_114
*1284 FILLER_23_118
*1285 FILLER_23_121
*1286 FILLER_23_129
*1287 FILLER_23_137
*1288 FILLER_23_145
*1289 FILLER_23_153
*1290 FILLER_24_6
*1291 FILLER_24_14
*1292 FILLER_24_22
*1293 FILLER_24_31
*1294 FILLER_24_63
*1295 FILLER_24_67
*1296 FILLER_24_69
*1297 FILLER_24_91
*1298 FILLER_24_95
*1299 FILLER_24_97
*1300 FILLER_24_108
*1301 FILLER_24_116
*1302 FILLER_24_124
*1303 FILLER_24_132
*1304 FILLER_24_140
*1305 FILLER_24_148
*1306 FILLER_24_151
*1307 FILLER_24_159
*1308 FILLER_25_3
*1309 FILLER_25_11
*1310 FILLER_25_19
*1311 FILLER_25_23
*1312 FILLER_25_28
*1313 FILLER_25_31
*1314 FILLER_25_39
*1315 FILLER_25_47
*1316 FILLER_25_55
*1317 FILLER_25_59
*1318 FILLER_25_61
*1319 FILLER_25_69
*1320 FILLER_25_77
*1321 FILLER_25_85
*1322 FILLER_25_89
*1323 FILLER_25_91
*1324 FILLER_25_99
*1325 FILLER_25_111
*1326 FILLER_25_119
*1327 FILLER_25_121
*1328 FILLER_25_129
*1329 FILLER_25_137
*1330 FILLER_25_145
*1331 FILLER_25_149
*1332 FILLER_25_151
*1333 FILLER_25_159

*PORTS
clk I
debug_reg_addr[0] I
debug_reg_addr[1] I
debug_reg_addr[2] I
debug_reg_addr[3] I
debug_reg_data[0] O
debug_reg_data[10] O
debug_reg_data[11] O
debug_reg_data[12] O
debug_reg_data[13] O
debug_reg_data[14] O
debug_reg_data[15] O
debug_reg_data[16] O
debug_reg_data[17] O
debug_reg_data[18] O
debug_reg_data[19] O
debug_reg_data[1] O
debug_reg_data[20] O
debug_reg_data[21] O
debug_reg_data[22] O
debug_reg_data[23] O
debug_reg_data[24] O
debug_reg_data[25] O
debug_reg_data[26] O
debug_reg_data[27] O
debug_reg_data[28] O
debug_reg_data[29] O
debug_reg_data[2] O
debug_reg_data[30] O
debug_reg_data[31] O
debug_reg_data[32] O
debug_reg_data[33] O
debug_reg_data[34] O
debug_reg_data[35] O
debug_reg_data[36] O
debug_reg_data[37] O
debug_reg_data[38] O
debug_reg_data[39] O
debug_reg_data[3] O
debug_reg_data[40] O
debug_reg_data[41] O
debug_reg_data[42] O
debug_reg_data[43] O
debug_reg_data[44] O
debug_reg_data[45] O
debug_reg_data[46] O
debug_reg_data[47] O
debug_reg_data[48] O
debug_reg_data[49] O
debug_reg_data[4] O
debug_reg_data[50] O
debug_reg_data[51] O
debug_reg_data[52] O
debug_reg_data[53] O
debug_reg_data[5] O
debug_reg_data[6] O
debug_reg_data[7] O
debug_reg_data[8] O
debug_reg_data[9] O
halted O
ipc_out[0] O
ipc_out[1] O
pc_out[0] O
pc_out[10] O
pc_out[11] O
pc_out[12] O
pc_out[13] O
pc_out[14] O
pc_out[15] O
pc_out[1] O
pc_out[2] O
pc_out[3] O
pc_out[4] O
pc_out[5] O
pc_out[6] O
pc_out[7] O
pc_out[8] O
pc_out[9] O
prog_addr[0] I
prog_addr[1] I
prog_addr[2] I
prog_addr[3] I
prog_addr[4] I
prog_addr[5] I
prog_addr[6] I
prog_addr[7] I
prog_data[0] I
prog_data[10] I
prog_data[11] I
prog_data[12] I
prog_data[13] I
prog_data[14] I
prog_data[15] I
prog_data[16] I
prog_data[17] I
prog_data[1] I
prog_data[2] I
prog_data[3] I
prog_data[4] I
prog_data[5] I
prog_data[6] I
prog_data[7] I
prog_data[8] I
prog_data[9] I
prog_mode I
prog_we I
rst_n I
valid_out_a O
valid_out_b O

*D_NET *1 0.000513564
*CONN
*I *590:A I *D sky130_fd_sc_hd__fa_1
*I *444:Y O *D sky130_fd_sc_hd__inv_1
*CAP
1 *590:A 0.000153469
2 *444:Y 0.000153469
3 *590:A *444:A 7.13435e-05
4 *590:A *590:B 2.58616e-05
5 *590:A *5:18 0.000109421
*RES
1 *444:Y *590:A 13.1555 
*END

*D_NET *2 0.00276715
*CONN
*I *455:A I *D sky130_fd_sc_hd__inv_1
*I *446:A_N I *D sky130_fd_sc_hd__nand3b_1
*I *590:B I *D sky130_fd_sc_hd__fa_1
*I *617:COUT O *D sky130_fd_sc_hd__ha_1
*CAP
1 *455:A 0.000190093
2 *446:A_N 1.14991e-05
3 *590:B 0.000682186
4 *617:COUT 0.000580433
5 *2:23 0.000303345
6 *446:A_N *446:B 6.27782e-05
7 *446:A_N *446:C 6.27782e-05
8 *455:A *483:C 0.00028
9 *455:A *610:A 2.58757e-05
10 *455:A *613:B 2.1667e-05
11 *455:A *55:10 3.20407e-05
12 *455:A *55:12 0.000114659
13 *590:B *444:A 0.000114403
14 *590:B *495:B 0
15 *590:B *613:A 0
16 *590:B *613:B 0
17 *590:B *616:B 0
18 *590:B *617:B 0
19 *590:B *5:18 1.19595e-05
20 *590:B *65:12 0
21 *590:B *68:12 5.07384e-05
22 *2:23 *613:B 0.000196836
23 *590:A *590:B 2.58616e-05
*RES
1 *617:COUT *590:B 32.0713 
2 *590:B *2:23 7.993 
3 *2:23 *446:A_N 14.4725 
4 *2:23 *455:A 19.9797 
*END

*D_NET *3 0.00411768
*CONN
*I *614:B I *D sky130_fd_sc_hd__ha_1
*I *590:CIN I *D sky130_fd_sc_hd__fa_1
*I *509:A1 I *D sky130_fd_sc_hd__mux2_2
*I *441:A I *D sky130_fd_sc_hd__nand3_1
*I *610:COUT O *D sky130_fd_sc_hd__ha_1
*CAP
1 *614:B 0.000114663
2 *590:CIN 0.00011705
3 *509:A1 0.00016413
4 *441:A 0
5 *610:COUT 0
6 *3:34 0.000400129
7 *3:10 0.00108055
8 *3:4 0.00108483
9 *509:A1 *509:A0 6.50727e-05
10 *509:A1 *612:B 5.50522e-06
11 *509:A1 *57:10 2.7961e-05
12 *509:A1 *58:10 0
13 *509:A1 *301:42 5.03545e-06
14 *509:A1 *301:51 8.66782e-05
15 *509:A1 *301:72 1.69932e-05
16 *614:B *135:6 0.000261128
17 *3:10 *441:B 0.000208627
18 *3:10 *454:A 3.86483e-05
19 *3:10 *483:C 0.000208606
20 *3:10 *547:A 6.88946e-05
21 *3:10 *547:B 1.38545e-05
22 *3:10 *610:A 2.91639e-05
23 *3:10 *612:B 1.6989e-05
24 *3:10 *711:D 4.79251e-06
25 *3:10 *54:6 1.45622e-05
26 *3:10 *301:42 2.10465e-05
27 *3:34 *483:C 6.27718e-05
*RES
1 *610:COUT *3:4 9.24915 
2 *3:4 *3:10 19.5354 
3 *3:10 *441:A 13.7491 
4 *3:10 *509:A1 18.7961 
5 *3:4 *3:34 7.8859 
6 *3:34 *590:CIN 16.4116 
7 *3:34 *614:B 17.2456 
*END

*D_NET *4 0.00179715
*CONN
*I *548:A1 I *D sky130_fd_sc_hd__o21ai_0
*I *550:B I *D sky130_fd_sc_hd__and3_1
*I *553:A2 I *D sky130_fd_sc_hd__o21ai_0
*I *552:C_N I *D sky130_fd_sc_hd__nor3b_1
*I *590:COUT O *D sky130_fd_sc_hd__fa_1
*CAP
1 *548:A1 0
2 *550:B 0
3 *553:A2 0.000146644
4 *552:C_N 5.8911e-05
5 *590:COUT 0.00014957
6 *4:27 0.000229138
7 *4:14 0.00024347
8 *4:12 0.000251636
9 *552:C_N *301:38 6.08467e-05
10 *553:A2 *553:A1 3.64415e-05
11 *553:A2 *554:B2 6.92705e-05
12 *553:A2 *413:188 1.9965e-05
13 *4:12 *548:B1 6.08467e-05
14 *4:12 *551:A1 4.03362e-05
15 *4:12 *62:10 8.65522e-05
16 *4:12 *412:12 2.15348e-05
17 *4:12 *412:85 4.61908e-05
18 *4:12 *413:180 4.96557e-05
19 *4:14 *551:A1 9.24257e-05
20 *4:27 *551:A2 5.45575e-05
21 *4:27 *551:B1 0
22 *4:27 *177:12 5.21927e-05
23 *4:27 *301:38 2.69685e-05
*RES
1 *590:COUT *4:12 23.4382 
2 *4:12 *4:14 2.94181 
3 *4:14 *552:C_N 10.5271 
4 *4:14 *4:27 11.6625 
5 *4:27 *553:A2 13.3484 
6 *4:27 *550:B 9.24915 
7 *4:12 *548:A1 9.24915 
*END

*D_NET *5 0.00268608
*CONN
*I *549:A I *D sky130_fd_sc_hd__inv_1
*I *552:A I *D sky130_fd_sc_hd__nor3b_1
*I *590:SUM O *D sky130_fd_sc_hd__fa_1
*CAP
1 *549:A 2.37648e-05
2 *552:A 0.000108157
3 *590:SUM 0.00106015
4 *5:18 0.00119207
5 *552:A *552:B 2.02035e-05
6 *552:A *554:A2 0
7 *552:A *177:12 0.000137036
8 *5:18 *177:12 2.33246e-05
9 *590:A *5:18 0.000109421
10 *590:B *5:18 1.19595e-05
*RES
1 *590:SUM *5:18 26.6348 
2 *5:18 *552:A 21.7985 
3 *5:18 *549:A 10.1474 
*END

*D_NET *6 0.000964507
*CONN
*I *483:A I *D sky130_fd_sc_hd__nand3_1
*I *614:A I *D sky130_fd_sc_hd__ha_1
*I *455:Y O *D sky130_fd_sc_hd__inv_1
*CAP
1 *483:A 0
2 *614:A 0.000172915
3 *455:Y 8.80298e-05
4 *6:6 0.000260945
5 *614:A *68:12 0.000164842
6 *614:A *135:6 0.000113254
7 *6:6 *483:C 8.94761e-05
8 *6:6 *484:B1 1.41976e-05
9 *6:6 *68:19 6.08467e-05
*RES
1 *455:Y *6:6 11.9137 
2 *6:6 *614:A 23.0201 
3 *6:6 *483:A 9.24915 
*END

*D_NET *7 0.000254619
*CONN
*I *591:CIN I *D sky130_fd_sc_hd__fa_1
*I *442:Y O *D sky130_fd_sc_hd__inv_1
*CAP
1 *591:CIN 0.000111215
2 *442:Y 0.000111215
3 *591:CIN *442:A 7.31677e-06
4 *591:CIN *8:14 2.48716e-05
*RES
1 *442:Y *591:CIN 29.7764 
*END

*D_NET *8 0.00296281
*CONN
*I *559:A1 I *D sky130_fd_sc_hd__o21ai_0
*I *562:A1 I *D sky130_fd_sc_hd__mux2i_1
*I *558:B I *D sky130_fd_sc_hd__nand3b_1
*I *561:B I *D sky130_fd_sc_hd__nand2b_1
*I *591:COUT O *D sky130_fd_sc_hd__fa_1
*CAP
1 *559:A1 0.000196262
2 *562:A1 0
3 *558:B 0.000168222
4 *561:B 0
5 *591:COUT 0.0005248
6 *8:36 0.000405937
7 *8:14 0.000286533
8 *8:6 0.000852786
9 *558:B *556:A 0
10 *558:B *558:C 1.02267e-05
11 *558:B *58:14 0.000192193
12 *558:B *58:31 3.00082e-05
13 *559:A1 *558:A_N 7.55092e-05
14 *559:A1 *559:B1 0
15 *559:A1 *566:A2 0.000109421
16 *559:A1 *412:107 0
17 *8:14 *558:A_N 0
18 *8:14 *562:A0 2.2506e-05
19 *8:14 *58:10 1.03594e-05
20 *8:14 *58:14 1.56314e-05
21 *8:36 *566:A2 2.30636e-05
22 *8:36 *9:6 1.44764e-05
23 *591:CIN *8:14 2.48716e-05
*RES
1 *591:COUT *8:6 16.6278 
2 *8:6 *8:14 11.8373 
3 *8:14 *561:B 9.24915 
4 *8:14 *558:B 15.175 
5 *8:6 *8:36 3.52053 
6 *8:36 *562:A1 9.24915 
7 *8:36 *559:A1 23.4354 
*END

*D_NET *9 0.000967077
*CONN
*I *562:S I *D sky130_fd_sc_hd__mux2i_1
*I *558:A_N I *D sky130_fd_sc_hd__nand3b_1
*I *591:SUM O *D sky130_fd_sc_hd__fa_1
*CAP
1 *562:S 9.11245e-05
2 *558:A_N 0.000161414
3 *591:SUM 9.65988e-05
4 *9:6 0.000349137
5 *558:A_N *562:A0 4.66636e-05
6 *558:A_N *412:107 0
7 *562:S *566:A2 8.32282e-05
8 *9:6 *566:A2 4.89251e-05
9 *559:A1 *558:A_N 7.55092e-05
10 *8:14 *558:A_N 0
11 *8:36 *9:6 1.44764e-05
*RES
1 *591:SUM *9:6 11.6364 
2 *9:6 *558:A_N 22.5727 
3 *9:6 *562:S 11.6364 
*END

*D_NET *10 0.0022205
*CONN
*I *563:B I *D sky130_fd_sc_hd__nand3b_1
*I *555:C_N I *D sky130_fd_sc_hd__nor3b_1
*I *557:A2 I *D sky130_fd_sc_hd__o21ai_0
*I *564:A_N I *D sky130_fd_sc_hd__nand2b_1
*I *592:COUT O *D sky130_fd_sc_hd__fa_1
*CAP
1 *563:B 6.70711e-05
2 *555:C_N 2.63043e-05
3 *557:A2 0.00016155
4 *564:A_N 0
5 *592:COUT 0.000294267
6 *10:21 0.000340293
7 *10:10 0.000379634
8 *555:C_N *555:B 0.000114271
9 *555:C_N *563:A_N 1.02267e-05
10 *557:A2 *555:B 1.3808e-05
11 *557:A2 *556:A 0.000288582
12 *557:A2 *58:31 1.02267e-05
13 *557:A2 *70:20 0.000160047
14 *563:B *555:B 1.65872e-05
15 *563:B *563:A_N 4.76161e-06
16 *563:B *11:27 3.74146e-05