*SPEF "ieee 1481-1999"
*DESIGN "ternary_cpu_system"
*DATE "21:44:02 Sunday December 28, 2025"
*VENDOR "The OpenROAD Project"
*PROGRAM "OpenROAD"
*VERSION "24Q3-11673-g154f14ab7e"
*DESIGN_FLOW "NAME_SCOPE LOCAL" "PIN_CAP NONE"
*DIVIDER /
*DELIMITER :
*BUS_DELIMITER []
*T_UNIT 1 NS
*C_UNIT 1 PF
*R_UNIT 1 OHM
*L_UNIT 1 HENRY

*NAME_MAP
*1 _000_
*2 _001_
*3 _002_
*4 _003_
*5 _004_
*6 _005_
*7 _006_
*8 _007_
*9 _008_
*10 _009_
*11 _010_
*12 _011_
*13 _012_
*14 _013_
*15 _014_
*16 _015_
*17 _016_
*18 _017_
*19 _018_
*20 _019_
*21 _020_
*22 _021_
*23 _022_
*24 _023_
*25 _024_
*26 _025_
*27 _026_
*28 _027_
*29 _028_
*30 _029_
*31 _030_
*32 _031_
*33 _032_
*34 _033_
*35 _034_
*36 _035_
*37 _036_
*38 _037_
*39 _038_
*40 _039_
*41 _040_
*42 _041_
*43 _042_
*44 _043_
*45 _044_
*46 _045_
*47 _046_
*48 _047_
*49 _048_
*50 _049_
*51 _050_
*52 _051_
*53 _052_
*54 _053_
*55 _054_
*56 _055_
*57 _056_
*58 _057_
*59 _058_
*60 _059_
*61 _060_
*62 _061_
*63 _062_
*64 _063_
*65 _064_
*66 _065_
*67 _066_
*68 _067_
*69 _068_
*70 _069_
*71 _070_
*72 _071_
*73 _072_
*74 _073_
*75 _074_
*76 _075_
*77 _076_
*78 _077_
*79 _078_
*80 _079_
*81 _080_
*82 _081_
*83 _082_
*84 _083_
*85 _084_
*86 _085_
*87 _086_
*88 _087_
*89 _088_
*90 _089_
*91 _090_
*92 _091_
*93 _092_
*94 _093_
*95 _094_
*96 _095_
*97 _096_
*98 _097_
*99 _098_
*100 _099_
*101 _100_
*102 _101_
*103 _102_
*104 _103_
*105 _104_
*106 _105_
*107 _106_
*108 _107_
*109 _108_
*110 _109_
*111 _110_
*112 _111_
*113 _112_
*114 _113_
*115 _114_
*116 _115_
*117 _116_
*118 _117_
*119 _118_
*120 _119_
*121 _120_
*122 _121_
*123 _122_
*124 _123_
*125 _124_
*126 _125_
*127 _126_
*128 _127_
*129 _128_
*130 _129_
*131 _130_
*132 _131_
*133 _132_
*134 _133_
*135 _134_
*136 _135_
*137 _136_
*138 _137_
*140 _139_
*141 _140_
*142 _141_
*143 _142_
*144 _143_
*145 _144_
*146 _145_
*147 _146_
*150 _149_
*151 _150_
*152 _151_
*153 _152_
*154 _153_
*155 _154_
*156 _155_
*157 _156_
*158 _157_
*159 _158_
*160 _159_
*161 _160_
*162 _161_
*163 _162_
*164 _163_
*165 _164_
*166 _165_
*167 _166_
*168 _167_
*169 _168_
*170 _169_
*171 _170_
*172 _171_
*173 _172_
*174 _173_
*175 _174_
*176 _175_
*177 _176_
*178 _177_
*179 _178_
*180 _179_
*181 _180_
*182 _181_
*183 _182_
*184 _183_
*185 _184_
*186 _185_
*187 _186_
*188 _187_
*189 _188_
*190 _189_
*191 _190_
*192 _191_
*193 _192_
*194 _193_
*195 _194_
*196 _195_
*197 _196_
*198 _197_
*199 _198_
*200 _199_
*201 _200_
*202 _201_
*203 _202_
*204 _203_
*205 _204_
*206 _205_
*207 _206_
*208 _207_
*209 _208_
*210 _209_
*211 _210_
*212 _211_
*213 _212_
*214 _213_
*215 _214_
*216 _215_
*217 _216_
*218 _217_
*219 _218_
*220 _219_
*221 _220_
*222 _221_
*223 _222_
*224 _223_
*225 _224_
*226 _225_
*227 _226_
*228 _227_
*229 _228_
*230 _229_
*231 _230_
*232 _231_
*233 _232_
*234 _233_
*235 _234_
*236 _235_
*237 _236_
*238 _237_
*239 _238_
*240 _239_
*241 _240_
*242 _241_
*243 _242_
*244 _243_
*245 _244_
*246 _245_
*247 _246_
*248 _247_
*249 _248_
*250 _249_
*251 _250_
*252 _251_
*253 _252_
*254 _253_
*256 net68
*257 clk
*258 debug_reg_addr[0]
*259 debug_reg_addr[1]
*260 debug_reg_addr[2]
*261 debug_reg_addr[3]
*262 debug_reg_data[0]
*263 debug_reg_data[10]
*264 debug_reg_data[11]
*265 debug_reg_data[12]
*266 debug_reg_data[13]
*267 debug_reg_data[14]
*268 debug_reg_data[15]
*269 debug_reg_data[16]
*270 debug_reg_data[17]
*271 debug_reg_data[18]
*272 debug_reg_data[19]
*273 debug_reg_data[1]
*274 debug_reg_data[20]
*275 debug_reg_data[21]
*276 debug_reg_data[22]
*277 debug_reg_data[23]
*278 debug_reg_data[24]
*279 debug_reg_data[25]
*280 debug_reg_data[26]
*281 debug_reg_data[27]
*282 debug_reg_data[28]
*283 debug_reg_data[29]
*284 debug_reg_data[2]
*285 debug_reg_data[30]
*286 debug_reg_data[31]
*287 debug_reg_data[32]
*288 debug_reg_data[33]
*289 debug_reg_data[34]
*290 debug_reg_data[35]
*291 debug_reg_data[36]
*292 debug_reg_data[37]
*293 debug_reg_data[38]
*294 debug_reg_data[39]
*295 debug_reg_data[3]
*296 debug_reg_data[40]
*297 debug_reg_data[41]
*298 debug_reg_data[42]
*299 debug_reg_data[43]
*300 debug_reg_data[44]
*301 debug_reg_data[45]
*302 debug_reg_data[46]
*303 debug_reg_data[47]
*304 debug_reg_data[48]
*305 debug_reg_data[49]
*306 debug_reg_data[4]
*307 debug_reg_data[50]
*308 debug_reg_data[51]
*309 debug_reg_data[52]
*310 debug_reg_data[53]
*311 debug_reg_data[5]
*312 debug_reg_data[6]
*313 debug_reg_data[7]
*314 debug_reg_data[8]
*315 debug_reg_data[9]
*316 halted
*317 ipc_out[0]
*318 net95
*319 net96
*320 net97
*321 net98
*322 net99
*323 net100
*324 net101
*325 net102
*326 net103
*327 net104
*328 net105
*329 net106
*330 net107
*331 net108
*332 net109
*333 net110
*334 net111
*335 prog_addr[0]
*336 prog_addr[1]
*337 prog_addr[2]
*338 prog_addr[3]
*339 prog_addr[4]
*340 prog_addr[5]
*341 prog_addr[6]
*342 prog_addr[7]
*343 prog_data[0]
*344 prog_data[10]
*345 prog_data[11]
*346 prog_data[12]
*347 prog_data[13]
*348 prog_data[14]
*349 prog_data[15]
*350 prog_data[16]
*351 prog_data[17]
*352 prog_data[1]
*353 prog_data[2]
*354 prog_data[3]
*355 prog_data[4]
*356 prog_data[5]
*357 prog_data[6]
*358 prog_data[7]
*359 prog_data[8]
*360 prog_data[9]
*361 prog_mode
*362 prog_we
*363 rst_n
*364 u_cpu\.ex_wb_reg_write_a
*365 net94
*366 u_cpu\.next_pc\[0\]
*367 u_cpu\.next_pc\[10\]
*368 u_cpu\.next_pc\[11\]
*369 u_cpu\.next_pc\[12\]
*370 u_cpu\.next_pc\[13\]
*371 u_cpu\.next_pc\[14\]
*372 u_cpu\.next_pc\[15\]
*373 u_cpu\.next_pc\[1\]
*374 u_cpu\.next_pc\[2\]
*375 u_cpu\.next_pc\[3\]
*376 u_cpu\.next_pc\[4\]
*377 u_cpu\.next_pc\[5\]
*378 u_cpu\.next_pc\[6\]
*379 u_cpu\.next_pc\[7\]
*380 u_cpu\.next_pc\[8\]
*381 u_cpu\.next_pc\[9\]
*382 net112
*383 clknet_1_0__leaf_clk
*384 net
*385 net1
*386 net2
*387 net3
*388 net4
*389 net5
*390 net6
*391 net7
*392 net8
*393 net9
*394 net10
*395 net11
*396 net381
*402 net380
*408 net379
*410 net378
*413 net377
*417 net376
*419 net375
*423 net373
*427 net374
*430 net372
*433 valid_out_b
*434 valid_out_a
*435 pc_out[9]
*436 pc_out[8]
*437 pc_out[7]
*438 pc_out[6]
*439 pc_out[5]
*440 pc_out[4]
*441 pc_out[3]
*442 pc_out[2]
*443 pc_out[1]
*444 pc_out[15]
*445 pc_out[14]
*446 pc_out[13]
*447 pc_out[12]
*448 pc_out[11]
*449 pc_out[10]
*450 pc_out[0]
*451 ipc_out[1]
*452 net69
*453 net70
*454 net71
*455 net72
*456 net73
*457 net74
*458 net75
*459 net76
*460 net77
*461 net78
*462 net79
*463 net80
*464 net81
*465 net82
*466 net83
*467 net84
*468 net85
*469 net86
*470 net87
*471 net88
*472 net89
*473 net90
*474 net91
*475 net92
*476 net93
*481 net382
*485 net383
*488 net384
*491 net385
*495 net386
*500 net387
*504 net388
*509 net389
*510 net390
*512 net391
*514 net392
*516 net393
*517 net394
*520 net395
*524 net396
*531 net397
*536 net398
*537 net400
*538 net399
*542 net401
*546 net402
*549 net404
*550 net405
*551 net406
*554 net435
*555 net403
*556 clknet_1_1__leaf_clk
*557 net436
*559 net408
*560 net407
*562 net409
*564 net410
*565 net411
*569 net413
*570 net412
*574 net414
*576 net415
*578 net416
*579 net417
*580 net419
*581 net420
*582 net418
*583 net421
*585 net422
*587 net423
*590 net424
*592 net425
*593 net427
*594 net426
*596 net428
*598 net430
*599 net429
*600 net431
*601 net432
*603 net433
*605 net434
*607 net437
*610 net438
*611 clknet_0_clk
*624 net370
*626 net371
*627 _256_
*628 _257_
*629 _258_
*630 _259_
*631 _260_
*632 _261_
*633 FILLER_6_140
*634 _263_
*635 _264_
*636 _265_
*637 _266_
*638 _267_
*639 _268_
*640 _269_
*641 _270_
*642 _271_
*643 _272_
*644 _273_
*645 _274_
*646 _275_
*647 _276_
*648 _277_
*649 _278_
*650 _279_
*651 _280_
*652 _281_
*653 _282_
*654 _283_
*655 _284_
*656 _285_
*657 _286_
*658 _287_
*659 _288_
*660 _289_
*661 _290_
*662 _291_
*663 _292_
*664 _293_
*665 _294_
*666 _295_
*667 _296_
*668 _297_
*669 _298_
*670 _299_
*671 _300_
*672 _301_
*673 _302_
*674 _303_
*675 _304_
*676 _305_
*677 _306_
*678 _307_
*679 _308_
*680 _309_
*681 _310_
*682 _311_
*683 _312_
*684 _313_
*685 _314_
*686 _315_
*687 _316_
*688 _317_
*689 _318_
*690 _319_
*691 _320_
*692 _321_
*693 _322_
*694 _323_
*695 _324_
*696 _325_
*697 _326_
*698 _327_
*699 _328_
*700 _329_
*701 _330_
*702 FILLER_6_127
*703 FILLER_6_117
*704 _333_
*705 _334_
*706 _335_
*707 _336_
*708 _337_
*709 _338_
*710 _339_
*711 _340_
*712 _341_
*713 _342_
*714 _343_
*715 _344_
*716 _345_
*717 _346_
*718 _347_
*719 _348_
*720 _349_
*721 _350_
*722 _351_
*723 _352_
*724 _353_
*725 _354_
*726 _355_
*727 _356_
*728 _357_
*729 _358_
*730 _359_
*731 _360_
*732 _361_
*733 _362_
*734 _363_
*735 _364_
*736 _365_
*737 _366_
*738 _367_
*739 _368_
*740 _369_
*741 _370_
*742 _371_
*743 _372_
*744 _373_
*745 _374_
*746 _375_
*747 _376_
*748 _377_
*749 _378_
*750 _379_
*751 _380_
*752 _381_
*753 _382_
*754 _383_
*755 _384_
*756 _385_
*757 _386_
*758 _387_
*759 _388_
*760 _389_
*761 _390_
*762 _391_
*763 _392_
*764 _393_
*765 _394_
*766 _395_
*767 _396_
*768 _397_
*769 _398_
*770 _399_
*771 _400_
*772 _401_
*773 _402_
*774 _403_
*775 _404_
*776 _405_
*777 _406_
*778 _407_
*779 _408_
*780 _409_
*781 _410_
*782 _411_
*783 _412_
*784 _413_
*785 _414_
*786 _415_
*787 _416_
*788 _417_
*789 _418_
*790 _419_
*791 _420_
*792 _421_
*793 _422_
*794 _423_
*795 _424_
*796 _425_
*797 _426_
*798 _427_
*799 _428_
*800 _429_
*801 _430_
*802 _431_
*803 _432_
*804 _433_
*805 _434_
*806 _435_
*807 _436_
*808 _437_
*809 _438_
*810 _439_
*811 _440_
*812 _441_
*813 _442_
*814 _443_
*815 _444_
*816 _445_
*817 _446_
*818 _447_
*819 _448_
*820 _449_
*821 _450_
*822 _451_
*823 _452_
*824 _453_
*825 _454_
*826 _455_
*827 _456_
*828 _457_
*829 _458_
*830 _459_
*831 _460_
*832 _461_
*833 _462_
*834 _463_
*835 _464_
*836 _465_
*837 _466_
*838 _467_
*839 _468_
*840 _469_
*841 _470_
*842 _471_
*843 _472_
*844 _473_
*845 PHY_EDGE_ROW_0_Right_0
*846 _423__69
*847 place382
*848 FILLER_7_45
*849 FILLER_7_40
*850 FILLER_7_34
*851 FILLER_7_21
*852 FILLER_7_4
*853 place381
*854 FILLER_8_2
*855 FILLER_7_112
*856 FILLER_7_57
*857 FILLER_7_53
*858 FILLER_7_51
*859 place380
*860 FILLER_8_15
*861 place379
*862 FILLER_8_49
*863 FILLER_8_22
*864 place378
*865 FILLER_8_47
*866 FILLER_8_26
*867 FILLER_0_13
*868 place377
*869 FILLER_8_67
*870 place376
*871 FILLER_0_26
*872 FILLER_0_24
*873 FILLER_0_17
*874 place374
*875 FILLER_8_128
*876 FILLER_8_113
*877 FILLER_8_91
*878 place375
*879 FILLER_9_53
*880 FILLER_9_31
*881 place373
*882 FILLER_9_2
*883 FILLER_8_134
*884 output114
*885 output113
*886 output112
*887 output111
*888 output110
*889 output109
*890 output108
*891 output107
*892 output106
*893 output105
*894 output104
*895 output103
*896 output102
*897 output101
*898 output100
*899 output99
*900 output98
*901 output97
*902 output96
*903 input95
*904 clkbuf_1_0__f_clk
*905 u_cpu\.id_ex_valid_a\$_DFF_PN0_
*906 u_cpu\.if_id_valid_b\$_DFF_PN0_
*907 u_cpu\.imem_addr\[0\]\$_DFF_PN0_
*908 u_cpu\.imem_addr\[10\]\$_DFF_PN0_
*909 u_cpu\.imem_addr\[11\]\$_DFF_PN0_
*910 u_cpu\.imem_addr\[12\]\$_DFF_PN0_
*911 u_cpu\.imem_addr\[13\]\$_DFF_PN0_
*912 u_cpu\.imem_addr\[14\]\$_DFF_PN0_
*913 u_cpu\.imem_addr\[15\]\$_DFF_PN0_
*914 u_cpu\.imem_addr\[1\]\$_DFF_PN0_
*915 u_cpu\.imem_addr\[2\]\$_DFF_PN0_
*916 u_cpu\.imem_addr\[3\]\$_DFF_PN0_
*917 u_cpu\.imem_addr\[4\]\$_DFF_PN0_
*918 u_cpu\.imem_addr\[5\]\$_DFF_PN0_
*919 u_cpu\.imem_addr\[6\]\$_DFF_PN0_
*920 u_cpu\.imem_addr\[7\]\$_DFF_PN0_
*921 u_cpu\.imem_addr\[8\]\$_DFF_PN0_
*922 u_cpu\.imem_addr\[9\]\$_DFF_PN0_
*923 u_cpu\.valid_out_a\$_DFF_PN0_
*924 _423__1
*925 _424__2
*926 _429__3
*927 _430__4
*928 _431__5
*929 _432__6
*930 _433__7
*931 _434__8
*932 _435__9
*933 _436__10
*934 _437__11
*935 _438__12
*936 _476__13
*937 _477__14
*938 _478__15
*939 _479__16
*940 _480__17
*941 _481__18
*942 _482__19
*943 _483__20
*944 _484__21
*945 _485__22
*946 _486__23
*947 _487__24
*948 _488__25
*949 _489__26
*950 _490__27
*951 _491__28
*952 _492__29
*953 _493__30
*954 _494__31
*955 _495__32
*956 _496__33
*957 _497__34
*958 _498__35
*959 _499__36
*960 _500__37
*961 _501__38
*962 _502__39
*963 _503__40
*964 _504__41
*965 _505__42
*966 _506__43
*967 _507__44
*968 _508__45
*969 _509__46
*970 _510__47
*971 _511__48
*972 _512__49
*973 _513__50
*974 _514__51
*975 _515__52
*976 _516__53
*977 _517__54
*978 _518__55
*979 _519__56
*980 _520__57
*981 _521__58
*982 _522__59
*983 _523__60
*984 _524__61
*985 _525__62
*986 _526__63
*987 _527__64
*988 _528__65
*989 _529__66
*990 _530__67
*991 _531__68
*992 _424__70
*993 _425__71
*994 _426__72
*995 _427__73
*996 _428__74
*997 u_cpu\.id_ex_valid_a\$_DFF_PN0__75
*998 u_cpu\.if_id_valid_b\$_DFF_PN0__76
*999 u_cpu\.if_id_valid_b\$_DFF_PN0__77
*1000 u_cpu\.imem_addr\[0\]\$_DFF_PN0__78
*1001 u_cpu\.imem_addr\[10\]\$_DFF_PN0__79
*1002 u_cpu\.imem_addr\[11\]\$_DFF_PN0__80
*1003 u_cpu\.imem_addr\[12\]\$_DFF_PN0__81
*1004 u_cpu\.imem_addr\[13\]\$_DFF_PN0__82
*1005 u_cpu\.imem_addr\[14\]\$_DFF_PN0__83
*1006 u_cpu\.imem_addr\[15\]\$_DFF_PN0__84
*1007 u_cpu\.imem_addr\[1\]\$_DFF_PN0__85
*1008 u_cpu\.imem_addr\[2\]\$_DFF_PN0__86
*1009 u_cpu\.imem_addr\[3\]\$_DFF_PN0__87
*1010 u_cpu\.imem_addr\[4\]\$_DFF_PN0__88
*1011 u_cpu\.imem_addr\[5\]\$_DFF_PN0__89
*1012 u_cpu\.imem_addr\[6\]\$_DFF_PN0__90
*1013 u_cpu\.imem_addr\[7\]\$_DFF_PN0__91
*1014 u_cpu\.imem_addr\[8\]\$_DFF_PN0__92
*1015 u_cpu\.imem_addr\[9\]\$_DFF_PN0__93
*1016 u_cpu\.valid_out_a\$_DFF_PN0__94
*1017 PHY_EDGE_ROW_1_Right_1
*1018 PHY_EDGE_ROW_2_Right_2
*1019 PHY_EDGE_ROW_3_Right_3
*1020 PHY_EDGE_ROW_4_Right_4
*1021 PHY_EDGE_ROW_5_Right_5
*1022 PHY_EDGE_ROW_6_Right_6
*1023 PHY_EDGE_ROW_7_Right_7
*1024 PHY_EDGE_ROW_8_Right_8
*1025 PHY_EDGE_ROW_9_Right_9
*1026 PHY_EDGE_ROW_10_Right_10
*1027 PHY_EDGE_ROW_11_Right_11
*1028 PHY_EDGE_ROW_12_Right_12
*1029 PHY_EDGE_ROW_13_Right_13
*1030 PHY_EDGE_ROW_14_Right_14
*1031 PHY_EDGE_ROW_15_Right_15
*1032 PHY_EDGE_ROW_16_Right_16
*1033 PHY_EDGE_ROW_17_Right_17
*1034 PHY_EDGE_ROW_18_Right_18
*1035 PHY_EDGE_ROW_19_Right_19
*1036 PHY_EDGE_ROW_20_Right_20
*1037 PHY_EDGE_ROW_21_Right_21
*1038 PHY_EDGE_ROW_22_Right_22
*1039 PHY_EDGE_ROW_23_Right_23
*1040 PHY_EDGE_ROW_24_Right_24
*1041 PHY_EDGE_ROW_25_Right_25
*1042 PHY_EDGE_ROW_26_Right_26
*1043 PHY_EDGE_ROW_27_Right_27
*1044 PHY_EDGE_ROW_28_Right_28
*1045 PHY_EDGE_ROW_0_Left_29
*1046 PHY_EDGE_ROW_1_Left_30
*1047 PHY_EDGE_ROW_2_Left_31
*1048 PHY_EDGE_ROW_3_Left_32
*1049 PHY_EDGE_ROW_4_Left_33
*1050 PHY_EDGE_ROW_5_Left_34
*1051 PHY_EDGE_ROW_6_Left_35
*1052 PHY_EDGE_ROW_7_Left_36
*1053 PHY_EDGE_ROW_8_Left_37
*1054 PHY_EDGE_ROW_9_Left_38
*1055 PHY_EDGE_ROW_10_Left_39
*1056 PHY_EDGE_ROW_11_Left_40
*1057 PHY_EDGE_ROW_12_Left_41
*1058 PHY_EDGE_ROW_13_Left_42
*1059 PHY_EDGE_ROW_14_Left_43
*1060 PHY_EDGE_ROW_15_Left_44
*1061 PHY_EDGE_ROW_16_Left_45
*1062 PHY_EDGE_ROW_17_Left_46
*1063 PHY_EDGE_ROW_18_Left_47
*1064 PHY_EDGE_ROW_19_Left_48
*1065 PHY_EDGE_ROW_20_Left_49
*1066 PHY_EDGE_ROW_21_Left_50
*1067 PHY_EDGE_ROW_22_Left_51
*1068 PHY_EDGE_ROW_23_Left_52
*1069 PHY_EDGE_ROW_24_Left_53
*1070 PHY_EDGE_ROW_25_Left_54
*1071 PHY_EDGE_ROW_26_Left_55
*1072 PHY_EDGE_ROW_27_Left_56
*1073 PHY_EDGE_ROW_28_Left_57
*1074 FILLER_6_146
*1075 FILLER_7_2
*1076 FILLER_6_90
*1077 place383
*1078 FILLER_6_108
*1079 FILLER_6_94
*1080 FILLER_6_115
*1081 place384
*1082 FILLER_6_81
*1083 FILLER_6_88
*1084 place385
*1085 FILLER_6_56
*1086 FILLER_6_66
*1087 place386
*1088 FILLER_6_45
*1089 FILLER_6_38
*1090 FILLER_6_52
*1091 place387
*1092 FILLER_5_147
*1093 FILLER_6_5
*1094 FILLER_6_19
*1095 FILLER_0_6
*1096 place388
*1097 FILLER_5_118
*1098 FILLER_5_145
*1099 FILLER_5_128
*1100 place389
*1101 FILLER_5_84
*1102 FILLER_5_90
*1103 FILLER_5_108
*1104 FILLER_5_106
*1105 place390
*1106 place391
*1107 FILLER_5_75
*1108 place392
*1109 FILLER_5_48
*1110 place393
*1111 FILLER_5_58
*1112 place394
*1113 place395
*1114 FILLER_4_144
*1115 FILLER_5_5
*1116 place396
*1117 FILLER_5_33
*1118 FILLER_5_27
*1119 FILLER_5_35
*1120 place397
*1121 FILLER_4_48
*1122 FILLER_4_82
*1123 FILLER_4_116
*1124 FILLER_4_86
*1125 FILLER_4_134
*1126 FILLER_3_105
*1127 place398
*1128 FILLER_4_11
*1129 FILLER_3_109
*1130 FILLER_3_116
*1131 FILLER_4_5
*1132 place399
*1133 place401
*1134 place400
*1135 FILLER_3_82
*1136 FILLER_3_68
*1137 FILLER_3_84
*1138 place402
*1139 FILLER_3_36
*1140 FILLER_3_30
*1141 FILLER_3_46
*1142 place403
*1143 FILLER_3_26
*1144 FILLER_3_20
*1145 place405
*1146 place406
*1147 place407
*1148 FILLER_3_6
*1149 FILLER_0_2
*1150 place436
*1151 place404
*1152 clkbuf_1_1__f_clk
*1153 place437
*1154 clkload0
*1155 place409
*1156 place408
*1157 FILLER_2_146
*1158 place410
*1159 FILLER_3_2
*1160 place411
*1161 place412
*1162 FILLER_2_108
*1163 FILLER_2_128
*1164 FILLER_2_140
*1165 place414
*1166 place413
*1167 FILLER_2_95
*1168 FILLER_2_88
*1169 FILLER_2_101
*1170 place415
*1171 FILLER_2_64
*1172 place416
*1173 FILLER_2_78
*1174 place417
*1175 place418
*1176 place420
*1177 place421
*1178 place419
*1179 place422
*1180 FILLER_2_51
*1181 place423
*1182 FILLER_2_15
*1183 place424
*1184 FILLER_2_46
*1185 FILLER_1_136
*1186 place425
*1187 FILLER_2_5
*1188 place426
*1189 place428
*1190 place427
*1191 FILLER_1_105
*1192 place429
*1193 FILLER_1_114
*1194 place431
*1195 place430
*1196 place432
*1197 place433
*1198 FILLER_1_103
*1199 place434
*1200 FILLER_1_97
*1201 place435
*1202 FILLER_1_63
*1203 place438
*1204 FILLER_1_34
*1205 FILLER_1_67
*1206 place439
*1207 clkbuf_0_clk
*1208 FILLER_1_30
*1209 FILLER_0_122
*1210 FILLER_0_49
*1211 FILLER_0_95
*1212 FILLER_0_65
*1213 FILLER_0_112
*1214 FILLER_0_107
*1215 FILLER_0_134
*1216 FILLER_0_124
*1217 FILLER_1_2
*1218 FILLER_0_144
*1219 FILLER_1_24
*1220 place371
*1221 FILLER_0_47
*1222 place372
*1223 FILLER_9_55
*1224 FILLER_9_59
*1225 FILLER_9_61
*1226 FILLER_9_65
*1227 FILLER_9_88
*1228 FILLER_9_94
*1229 FILLER_9_102
*1230 FILLER_9_130
*1231 FILLER_9_146
*1232 FILLER_10_5
*1233 FILLER_10_15
*1234 FILLER_10_17
*1235 FILLER_10_30
*1236 FILLER_10_38
*1237 FILLER_10_54
*1238 FILLER_10_59
*1239 FILLER_10_108
*1240 FILLER_10_112
*1241 FILLER_10_133
*1242 FILLER_11_5
*1243 FILLER_11_11
*1244 FILLER_11_13
*1245 FILLER_11_29
*1246 FILLER_11_37
*1247 FILLER_11_43
*1248 FILLER_11_45
*1249 FILLER_11_49
*1250 FILLER_11_55
*1251 FILLER_11_68
*1252 FILLER_11_96
*1253 FILLER_11_102
*1254 FILLER_11_104
*1255 FILLER_11_128
*1256 FILLER_11_132
*1257 FILLER_11_143
*1258 FILLER_11_147
*1259 FILLER_12_2
*1260 FILLER_12_19
*1261 FILLER_12_21
*1262 FILLER_12_28
*1263 FILLER_12_30
*1264 FILLER_12_57
*1265 FILLER_12_71
*1266 FILLER_12_81
*1267 FILLER_12_101
*1268 FILLER_12_111
*1269 FILLER_12_113
*1270 FILLER_12_129
*1271 FILLER_12_145
*1272 FILLER_12_147
*1273 FILLER_13_2
*1274 FILLER_13_24
*1275 FILLER_13_26
*1276 FILLER_13_35
*1277 FILLER_13_41
*1278 FILLER_13_45
*1279 FILLER_13_55
*1280 FILLER_13_76
*1281 FILLER_13_86
*1282 FILLER_13_104
*1283 FILLER_13_132
*1284 FILLER_13_138
*1285 FILLER_13_146
*1286 FILLER_14_10
*1287 FILLER_14_53
*1288 FILLER_14_71
*1289 FILLER_14_81
*1290 FILLER_14_93
*1291 FILLER_14_105
*1292 FILLER_14_119
*1293 FILLER_14_121
*1294 FILLER_14_125
*1295 FILLER_15_2
*1296 FILLER_15_16
*1297 FILLER_15_18
*1298 FILLER_15_25
*1299 FILLER_15_33
*1300 FILLER_15_47
*1301 FILLER_15_72
*1302 FILLER_15_92
*1303 FILLER_15_103
*1304 FILLER_15_107
*1305 FILLER_15_134
*1306 FILLER_15_147
*1307 FILLER_16_10
*1308 FILLER_16_40
*1309 FILLER_16_46
*1310 FILLER_16_56
*1311 FILLER_16_69
*1312 FILLER_16_71
*1313 FILLER_16_78
*1314 FILLER_16_87
*1315 FILLER_16_96
*1316 FILLER_16_124
*1317 FILLER_16_128
*1318 FILLER_16_135
*1319 FILLER_16_139
*1320 FILLER_16_146
*1321 FILLER_17_8
*1322 FILLER_17_12
*1323 FILLER_17_22
*1324 FILLER_17_43
*1325 FILLER_17_77
*1326 FILLER_17_109
*1327 FILLER_17_111
*1328 FILLER_17_115
*1329 FILLER_17_121
*1330 FILLER_18_5
*1331 FILLER_18_29
*1332 FILLER_18_43
*1333 FILLER_18_45
*1334 FILLER_18_53
*1335 FILLER_18_59
*1336 FILLER_18_89
*1337 FILLER_18_103
*1338 FILLER_18_107
*1339 FILLER_18_126
*1340 FILLER_18_133
*1341 FILLER_18_140
*1342 FILLER_18_142
*1343 FILLER_19_2
*1344 FILLER_19_24
*1345 FILLER_19_60
*1346 FILLER_19_86
*1347 FILLER_19_100
*1348 FILLER_19_106
*1349 FILLER_19_127
*1350 FILLER_19_140
*1351 FILLER_19_142
*1352 FILLER_20_5
*1353 FILLER_20_11
*1354 FILLER_20_26
*1355 FILLER_20_32
*1356 FILLER_20_43
*1357 FILLER_20_59
*1358 FILLER_20_63
*1359 FILLER_20_81
*1360 FILLER_20_83
*1361 FILLER_20_93
*1362 FILLER_20_95
*1363 FILLER_20_111
*1364 FILLER_20_115
*1365 FILLER_20_128
*1366 FILLER_20_133
*1367 FILLER_20_144
*1368 FILLER_21_2
*1369 FILLER_21_18
*1370 FILLER_21_23
*1371 FILLER_21_44
*1372 FILLER_21_48
*1373 FILLER_21_80
*1374 FILLER_21_107
*1375 FILLER_21_131
*1376 FILLER_21_141
*1377 FILLER_21_147
*1378 FILLER_22_2
*1379 FILLER_22_8
*1380 FILLER_22_31
*1381 FILLER_22_33
*1382 FILLER_22_37
*1383 FILLER_22_51
*1384 FILLER_22_60
*1385 FILLER_22_75
*1386 FILLER_22_93
*1387 FILLER_22_135
*1388 FILLER_22_141
*1389 FILLER_23_5
*1390 FILLER_23_15
*1391 FILLER_23_27
*1392 FILLER_23_33
*1393 FILLER_23_35
*1394 FILLER_23_65
*1395 FILLER_23_72
*1396 FILLER_23_91
*1397 FILLER_23_97
*1398 FILLER_23_99
*1399 FILLER_23_109
*1400 FILLER_23_117
*1401 FILLER_23_132
*1402 FILLER_23_136
*1403 FILLER_23_140
*1404 FILLER_23_146
*1405 FILLER_24_8
*1406 FILLER_24_14
*1407 FILLER_24_16
*1408 FILLER_24_43
*1409 FILLER_24_62
*1410 FILLER_24_72
*1411 FILLER_24_74
*1412 FILLER_24_91
*1413 FILLER_24_101
*1414 FILLER_24_111
*1415 FILLER_24_144
*1416 FILLER_25_5
*1417 FILLER_25_15
*1418 FILLER_25_51
*1419 FILLER_25_82
*1420 FILLER_25_96
*1421 FILLER_25_100
*1422 FILLER_25_104
*1423 FILLER_25_110
*1424 FILLER_25_121
*1425 FILLER_25_127
*1426 FILLER_25_129
*1427 FILLER_25_133
*1428 FILLER_25_147
*1429 FILLER_26_2
*1430 FILLER_26_24
*1431 FILLER_26_36
*1432 FILLER_26_127
*1433 FILLER_26_141
*1434 FILLER_26_147
*1435 FILLER_27_2
*1436 FILLER_27_24
*1437 FILLER_27_38
*1438 FILLER_27_47
*1439 FILLER_27_51
*1440 FILLER_27_66
*1441 FILLER_27_108
*1442 FILLER_27_119
*1443 FILLER_27_141
*1444 FILLER_27_147
*1445 FILLER_28_2
*1446 FILLER_28_17
*1447 FILLER_28_23
*1448 FILLER_28_25
*1449 FILLER_28_32
*1450 FILLER_28_38
*1451 FILLER_28_47
*1452 FILLER_28_53
*1453 FILLER_28_61
*1454 FILLER_28_69
*1455 FILLER_28_79
*1456 FILLER_28_93
*1457 FILLER_28_97
*1458 FILLER_28_101
*1459 FILLER_28_116
*1460 FILLER_28_138

*PORTS
clk I
debug_reg_addr[0] I
debug_reg_addr[1] I
debug_reg_addr[2] I
debug_reg_addr[3] I
debug_reg_data[0] O
debug_reg_data[10] O
debug_reg_data[11] O
debug_reg_data[12] O
debug_reg_data[13] O
debug_reg_data[14] O
debug_reg_data[15] O
debug_reg_data[16] O
debug_reg_data[17] O
debug_reg_data[18] O
debug_reg_data[19] O
debug_reg_data[1] O
debug_reg_data[20] O
debug_reg_data[21] O
debug_reg_data[22] O
debug_reg_data[23] O
debug_reg_data[24] O
debug_reg_data[25] O
debug_reg_data[26] O
debug_reg_data[27] O
debug_reg_data[28] O
debug_reg_data[29] O
debug_reg_data[2] O
debug_reg_data[30] O
debug_reg_data[31] O
debug_reg_data[32] O
debug_reg_data[33] O
debug_reg_data[34] O
debug_reg_data[35] O
debug_reg_data[36] O
debug_reg_data[37] O
debug_reg_data[38] O
debug_reg_data[39] O
debug_reg_data[3] O
debug_reg_data[40] O
debug_reg_data[41] O
debug_reg_data[42] O
debug_reg_data[43] O
debug_reg_data[44] O
debug_reg_data[45] O
debug_reg_data[46] O
debug_reg_data[47] O
debug_reg_data[48] O
debug_reg_data[49] O
debug_reg_data[4] O
debug_reg_data[50] O
debug_reg_data[51] O
debug_reg_data[52] O
debug_reg_data[53] O
debug_reg_data[5] O
debug_reg_data[6] O
debug_reg_data[7] O
debug_reg_data[8] O
debug_reg_data[9] O
halted O
ipc_out[0] O
ipc_out[1] O
pc_out[0] O
pc_out[10] O
pc_out[11] O
pc_out[12] O
pc_out[13] O
pc_out[14] O
pc_out[15] O
pc_out[1] O
pc_out[2] O
pc_out[3] O
pc_out[4] O
pc_out[5] O
pc_out[6] O
pc_out[7] O
pc_out[8] O
pc_out[9] O
prog_addr[0] I
prog_addr[1] I
prog_addr[2] I
prog_addr[3] I
prog_addr[4] I
prog_addr[5] I
prog_addr[6] I
prog_addr[7] I
prog_data[0] I
prog_data[10] I
prog_data[11] I
prog_data[12] I
prog_data[13] I
prog_data[14] I
prog_data[15] I
prog_data[16] I
prog_data[17] I
prog_data[1] I
prog_data[2] I
prog_data[3] I
prog_data[4] I
prog_data[5] I
prog_data[6] I
prog_data[7] I
prog_data[8] I
prog_data[9] I
prog_mode I
prog_we I
rst_n I
valid_out_a O
valid_out_b O

*D_NET *1 7.30827e-05
*CONN
*I *631:A I *D INVx1_ASAP7_75t_R
*I *923:QN O *D DFFASRHQNx1_ASAP7_75t_R
*CAP
1 *631:A 0
2 *923:QN 0
3 *1:12 2.89039e-05
4 *1:6 2.89039e-05
5 *1:12 *143:10 0
6 *1:12 *382:12 1.52749e-05
*RES
1 *923:QN *1:6 34.4 
2 *1:6 *1:12 39.4716 
3 *1:12 *631:A 17.2 
*END

*D_NET *2 1.56602e-05
*CONN
*I *632:A I *D INVx1_ASAP7_75t_R
*I *905:QN O *D DFFASRHQNx1_ASAP7_75t_R
*CAP
1 *632:A 7.83011e-06
2 *905:QN 7.83011e-06
*RES
1 *905:QN *632:A 38.1438 
*END

*D_NET *3 0.000167565
*CONN
*I *1201:A I *D BUFx3_ASAP7_75t_R
*I *1153:A I *D BUFx3_ASAP7_75t_R
*I *906:QN O *D DFFASRHQNx1_ASAP7_75t_R
*CAP
1 *1201:A 1.10045e-05
2 *1153:A 5.61355e-05
3 *906:QN 0
4 *3:10 6.31858e-05
5 *3:6 1.80549e-05
6 *1153:A *557:10 8.4825e-06
7 *1153:A *610:101 4.43846e-06
8 *1201:A *906:RESETN 1.48564e-06
9 *3:10 *906:RESETN 3.75158e-06
10 *3:10 *250:8 1.02642e-06
*RES
1 *906:QN *3:6 34.4 
2 *3:6 *3:10 22.8317 
3 *3:10 *1153:A 47.685 
4 *3:6 *1201:A 40.9029 
*END

*D_NET *4 1.7933e-05
*CONN
*I *637:A I *D INVx1_ASAP7_75t_R
*I *909:QN O *D DFFASRHQNx1_ASAP7_75t_R
*CAP
1 *637:A 0
2 *909:QN 8.96648e-06
3 *4:10 8.96648e-06
4 *4:10 *908:RESETN 0
*RES
1 *909:QN *4:10 39.3835 
2 *4:10 *637:A 34.4 
*END

*D_NET *5 5.1723e-05
*CONN
*I *639:A I *D INVx1_ASAP7_75t_R
*I *911:QN O *D DFFASRHQNx1_ASAP7_75t_R
*CAP
1 *639:A 0
2 *911:QN 2.53391e-05
3 *5:10 2.53391e-05
4 *5:10 *911:RESETN 1.04475e-06
5 *5:10 *464:8 0
*RES
1 *911:QN *5:10 44.7317 
2 *5:10 *639:A 34.4 
*END

*D_NET *6 1.13249e-05
*CONN
*I *641:A I *D INVx1_ASAP7_75t_R
*I *913:QN O *D DFFASRHQNx1_ASAP7_75t_R
*CAP
1 *641:A 5.66247e-06
2 *913:QN 5.66247e-06
*RES
1 *913:QN *641:A 37.0741 
*END

*D_NET *7 7.86278e-05
*CONN
*I *646:A I *D INVx1_ASAP7_75t_R
*I *918:QN O *D DFFASRHQNx1_ASAP7_75t_R
*CAP
1 *646:A 0
2 *918:QN 3.93139e-05
3 *7:6 3.93139e-05
*RES
1 *918:QN *7:6 34.8492 
2 *7:6 *646:A 17.2 
*END

*D_NET *8 1.08425e-05
*CONN
*I *648:A I *D INVx1_ASAP7_75t_R
*I *920:QN O *D DFFASRHQNx1_ASAP7_75t_R
*CAP
1 *648:A 0
2 *920:QN 5.42126e-06
3 *8:8 5.42126e-06
*RES
1 *920:QN *8:8 37.779 
2 *8:8 *648:A 34.4 
*END

*D_NET *9 6.97271e-05
*CONN
*I *650:A I *D INVx1_ASAP7_75t_R
*I *922:QN O *D DFFASRHQNx1_ASAP7_75t_R
*CAP
1 *650:A 0
2 *922:QN 3.43161e-05
3 *9:10 3.43161e-05
4 *9:10 *475:8 1.09493e-06
*RES
1 *922:QN *9:10 47.9407 
2 *9:10 *650:A 34.4 
*END

*D_NET *10 8.68792e-05
*CONN
*I *654:A3 I *D OA31x2_ASAP7_75t_R
*I *793:B I *D FAx1_ASAP7_75t_R
*I *630:Y O *D INVx1_ASAP7_75t_R
*CAP
1 *654:A3 0
2 *793:B 2.63068e-05
3 *630:Y 1.19837e-05
4 *10:16 1.43231e-05
5 *793:B *630:A 3.65131e-06
6 *10:16 *793:CI 0
7 *10:16 *817:A 2.21506e-05
8 *10:16 *596:8 8.46363e-06
*RES
1 *630:Y *793:B 23.8853 
2 *793:B *10:16 47.2111 
3 *10:16 *654:A3 17.2 
*END

*D_NET *11 0.000191197
*CONN
*I *705:A2 I *D OA21x2_ASAP7_75t_R
*I *817:B I *D HAxp5_ASAP7_75t_R
*I *793:CI I *D FAx1_ASAP7_75t_R
*I *627:Y O *D INVx1_ASAP7_75t_R
*CAP
1 *705:A2 0
2 *817:B 8.50349e-06
3 *793:CI 1.50621e-05
4 *627:Y 1.14322e-05
5 *11:27 2.60439e-05
6 *11:12 3.363e-05
7 *11:10 1.24597e-05
8 *793:CI *817:A 0
9 *793:CI *383:57 4.90164e-05
10 *793:CI *596:8 0
11 *11:10 *150:10 2.20128e-06
12 *11:10 *383:57 6.8435e-06
13 *11:10 *600:18 6.7842e-07
14 *11:10 *603:47 2.0561e-05
15 *11:12 *383:57 3.48708e-06
16 *11:27 *150:10 0
17 *11:27 *603:47 1.27782e-06
18 *11:27 *607:80 0
19 *10:16 *793:CI 0
*RES
1 *627:Y *11:10 44.1686 
2 *11:10 *11:12 1.6895 
3 *11:12 *793:CI 33.5318 
4 *11:12 *11:27 46.3079 
5 *11:27 *817:B 39.2134 
6 *11:10 *705:A2 34.4 
*END

*D_NET *12 0.000100565
*CONN
*I *1161:A I *D BUFx3_ASAP7_75t_R
*I *793:CON O *D FAx1_ASAP7_75t_R
*CAP
1 *1161:A 2.00638e-05
2 *793:CON 2.00638e-05
3 *1161:A *749:A 7.58265e-07
4 *1161:A *565:6 1.01102e-06
5 *1161:A *603:65 5.8668e-05
*RES
1 *793:CON *1161:A 37.7908 
*END

*D_NET *13 8.40093e-05
*CONN
*I *1160:A I *D BUFx3_ASAP7_75t_R
*I *793:SN O *D FAx1_ASAP7_75t_R
*CAP
1 *1160:A 1.7997e-05
2 *793:SN 5.34461e-06
3 *13:8 2.33416e-05
4 *1160:A *672:A 5.19475e-06
5 *1160:A *755:A2 2.20493e-06
6 *1160:A *138:29 1.68856e-05
7 *13:8 *383:57 1.30409e-05
8 *13:8 *596:8 0
*RES
1 *793:SN *13:8 38.9053 
2 *13:8 *1160:A 47.7706 
*END

*D_NET *14 0.00010396
*CONN
*I *1192:A I *D BUFx3_ASAP7_75t_R
*I *820:CON O *D HAxp5_ASAP7_75t_R
*CAP
1 *1192:A 1.17522e-05
2 *820:CON 1.0421e-05
3 *14:8 2.21733e-05
4 *1192:A *82:8 4.79691e-06
5 *1192:A *82:38 0
6 *1192:A *383:57 0
7 *1192:A *607:60 2.34705e-05
8 *1192:A *607:72 2.04143e-05
9 *14:8 *82:16 3.91501e-06
10 *14:8 *82:25 4.18905e-06
11 *14:8 *82:38 2.8275e-06
*RES
1 *820:CON *14:8 40.2831 
2 *14:8 *1192:A 48.4791 
*END

*D_NET *15 7.56795e-05
*CONN
*I *628:C I *D OR3x1_ASAP7_75t_R
*I *627:A I *D INVx1_ASAP7_75t_R
*I *813:CON O *D HAxp5_ASAP7_75t_R
*CAP
1 *628:C 0
2 *627:A 0
3 *813:CON 1.47102e-05
4 *15:14 7.32157e-06
5 *15:6 2.20318e-05
6 *15:6 *628:A 1.56713e-06
7 *15:6 *68:31 2.0895e-06
8 *15:6 *601:14 5.62196e-06
9 *15:14 *69:10 2.20493e-06
10 *15:14 *70:10 4.23995e-06
11 *15:14 *138:18 3.09718e-06
12 *15:14 *600:10 1.27953e-05
*RES
1 *813:CON *15:6 26.292 
2 *15:6 *15:14 40.5098 
3 *15:14 *627:A 17.2 
4 *15:6 *628:C 17.2 
*END

*D_NET *16 7.88102e-05
*CONN
*I *794:CI I *D FAx1_ASAP7_75t_R
*I *629:Y O *D INVx1_ASAP7_75t_R
*CAP
1 *794:CI 3.65155e-06
2 *629:Y 3.3659e-05
3 *16:8 3.73106e-05
4 *794:CI *384:8 3.92018e-06
5 *794:CI *579:74 2.68933e-07
*RES
1 *629:Y *16:8 48.8403 
2 *16:8 *794:CI 21.1422 
*END

*D_NET *17 2.06726e-05
*CONN
*I *1158:A I *D BUFx3_ASAP7_75t_R
*I *794:CON O *D FAx1_ASAP7_75t_R
*CAP
1 *1158:A 0
2 *794:CON 6.16823e-06
3 *17:8 6.16823e-06
4 *17:8 *579:74 7.24542e-06
5 *17:8 *601:55 1.09067e-06
*RES
1 *794:CON *17:8 40.0317 
2 *17:8 *1158:A 17.2 
*END

*D_NET *18 4.52311e-05
*CONN
*I *756:A I *D INVx1_ASAP7_75t_R
*I *794:SN O *D FAx1_ASAP7_75t_R
*CAP
1 *756:A 2.26155e-05
2 *794:SN 2.26155e-05
*RES
1 *794:SN *756:A 44.5617 
*END

*D_NET *19 6.95219e-05
*CONN
*I *795:B I *D FAx1_ASAP7_75t_R
*I *698:Y O *D INVx1_ASAP7_75t_R
*CAP
1 *795:B 1.4987e-05
2 *698:Y 9.75459e-06
3 *19:8 2.47416e-05
4 *795:B *795:A 1.63821e-05
5 *795:B *22:8 0
6 *795:B *524:12 0
7 *19:8 *674:A2 3.65663e-06
*RES
1 *698:Y *19:8 39.2134 
2 *19:8 *795:B 31.2792 
*END
