*SPEF "ieee 1481-1999"
*DESIGN "ternary_cpu_system"
*DATE "22:01:09 Friday December 26, 2025"
*VENDOR "The OpenROAD Project"
*PROGRAM "OpenROAD"
*VERSION "24Q3-11661-g86b9236cdd"
*DESIGN_FLOW "NAME_SCOPE LOCAL" "PIN_CAP NONE"
*DIVIDER /
*DELIMITER :
*BUS_DELIMITER []
*T_UNIT 1 NS
*C_UNIT 1 PF
*R_UNIT 1 OHM
*L_UNIT 1 HENRY

*NAME_MAP
*1 _000_
*2 _001_
*3 _002_
*4 _003_
*5 _004_
*6 _005_
*7 _006_
*8 _007_
*9 _008_
*10 _009_
*11 _010_
*12 _011_
*13 _012_
*14 _013_
*15 _014_
*16 _015_
*17 _016_
*18 _017_
*19 _018_
*20 _019_
*21 _020_
*22 _021_
*23 _022_
*24 _023_
*25 _024_
*26 _025_
*27 _026_
*28 _027_
*29 _028_
*30 _029_
*31 _030_
*32 _031_
*33 _032_
*34 _033_
*35 _034_
*36 _035_
*37 _036_
*38 _037_
*39 _038_
*40 _039_
*41 _040_
*42 _041_
*43 _042_
*44 _043_
*45 _044_
*46 _045_
*47 _046_
*48 _047_
*49 _048_
*50 _049_
*51 _050_
*52 _051_
*53 _052_
*54 _053_
*55 _054_
*56 _055_
*57 _056_
*58 _057_
*59 _058_
*60 _059_
*61 _060_
*62 _061_
*63 _062_
*64 _063_
*65 _064_
*66 _065_
*67 _066_
*68 _067_
*69 _068_
*70 _069_
*71 _070_
*72 _071_
*73 _072_
*74 _073_
*75 _074_
*76 _075_
*77 _076_
*78 _077_
*79 _078_
*80 _079_
*81 _080_
*82 _081_
*83 _082_
*84 _083_
*85 _084_
*86 _085_
*87 _086_
*88 _087_
*89 _088_
*90 _089_
*91 _090_
*92 _091_
*93 _092_
*94 _093_
*95 _094_
*96 _095_
*97 _096_
*98 _097_
*99 _098_
*100 _099_
*101 _100_
*102 _101_
*103 _102_
*104 _103_
*105 _104_
*106 _105_
*107 _106_
*108 _107_
*109 _108_
*110 _109_
*111 _110_
*112 _111_
*113 _112_
*114 _113_
*115 _114_
*116 _115_
*117 _116_
*118 _117_
*119 _118_
*120 _119_
*121 _120_
*122 _121_
*123 _122_
*124 _123_
*125 _124_
*126 _125_
*127 _126_
*128 _127_
*129 _128_
*130 _129_
*131 _130_
*132 _131_
*133 _132_
*134 _133_
*135 _134_
*136 _135_
*137 _136_
*138 _137_
*139 _138_
*140 _139_
*141 _140_
*142 _141_
*143 _142_
*145 _144_
*146 _145_
*148 _147_
*149 _148_
*150 _149_
*152 _151_
*153 _152_
*154 _153_
*155 _154_
*156 _155_
*157 _156_
*158 _157_
*159 _158_
*160 _159_
*161 _160_
*162 _161_
*163 _162_
*164 _163_
*165 _164_
*166 _165_
*167 _166_
*168 _167_
*169 _168_
*170 _169_
*171 _170_
*172 _171_
*173 _172_
*174 _173_
*175 _174_
*176 _175_
*177 _176_
*178 _177_
*179 _178_
*180 _179_
*181 _180_
*182 _181_
*183 _182_
*184 _183_
*185 _184_
*186 _185_
*187 _186_
*188 _187_
*189 _188_
*190 _189_
*191 _190_
*192 _191_
*193 _192_
*194 _193_
*195 _194_
*196 _195_
*197 _196_
*198 _197_
*199 _198_
*200 _199_
*201 _200_
*202 _201_
*203 _202_
*204 _203_
*205 _204_
*206 _205_
*207 _206_
*208 _207_
*209 _208_
*210 _209_
*211 _210_
*212 _211_
*213 _212_
*214 _213_
*215 _214_
*216 _215_
*217 _216_
*218 _217_
*219 _218_
*220 _219_
*221 _220_
*222 _221_
*223 _222_
*224 _223_
*225 _224_
*226 _225_
*227 _226_
*228 _227_
*229 _228_
*230 _229_
*231 _230_
*232 _231_
*233 _232_
*234 _233_
*235 _234_
*236 _235_
*237 _236_
*239 net68
*240 clk
*241 debug_reg_addr[0]
*242 debug_reg_addr[1]
*243 debug_reg_addr[2]
*244 debug_reg_addr[3]
*245 debug_reg_data[0]
*246 debug_reg_data[10]
*247 debug_reg_data[11]
*248 debug_reg_data[12]
*249 debug_reg_data[13]
*250 debug_reg_data[14]
*251 debug_reg_data[15]
*252 debug_reg_data[16]
*253 debug_reg_data[17]
*254 debug_reg_data[18]
*255 debug_reg_data[19]
*256 debug_reg_data[1]
*257 debug_reg_data[20]
*258 debug_reg_data[21]
*259 debug_reg_data[22]
*260 debug_reg_data[23]
*261 debug_reg_data[24]
*262 debug_reg_data[25]
*263 debug_reg_data[26]
*264 debug_reg_data[27]
*265 debug_reg_data[28]
*266 debug_reg_data[29]
*267 debug_reg_data[2]
*268 debug_reg_data[30]
*269 debug_reg_data[31]
*270 debug_reg_data[32]
*271 debug_reg_data[33]
*272 debug_reg_data[34]
*273 debug_reg_data[35]
*274 debug_reg_data[36]
*275 debug_reg_data[37]
*276 debug_reg_data[38]
*277 debug_reg_data[39]
*278 debug_reg_data[3]
*279 debug_reg_data[40]
*280 debug_reg_data[41]
*281 debug_reg_data[42]
*282 debug_reg_data[43]
*283 debug_reg_data[44]
*284 debug_reg_data[45]
*285 debug_reg_data[46]
*286 debug_reg_data[47]
*287 debug_reg_data[48]
*288 debug_reg_data[49]
*289 debug_reg_data[4]
*290 debug_reg_data[50]
*291 debug_reg_data[51]
*292 debug_reg_data[52]
*293 debug_reg_data[53]
*294 debug_reg_data[5]
*295 debug_reg_data[6]
*296 debug_reg_data[7]
*297 debug_reg_data[8]
*298 debug_reg_data[9]
*299 halted
*300 ipc_out[0]
*301 net76
*302 net77
*303 net78
*304 net79
*305 net80
*306 net81
*307 net82
*308 net83
*309 net84
*310 net85
*311 net86
*312 net87
*313 net88
*314 net89
*315 net90
*316 net91
*317 net92
*318 prog_addr[0]
*319 prog_addr[1]
*320 prog_addr[2]
*321 prog_addr[3]
*322 prog_addr[4]
*323 prog_addr[5]
*324 prog_addr[6]
*325 prog_addr[7]
*326 prog_data[0]
*327 prog_data[10]
*328 prog_data[11]
*329 prog_data[12]
*330 prog_data[13]
*331 prog_data[14]
*332 prog_data[15]
*333 prog_data[16]
*334 prog_data[17]
*335 prog_data[1]
*336 prog_data[2]
*337 prog_data[3]
*338 prog_data[4]
*339 prog_data[5]
*340 prog_data[6]
*341 prog_data[7]
*342 prog_data[8]
*343 prog_data[9]
*344 prog_mode
*345 prog_we
*346 rst_n
*347 u_cpu\.ex_wb_reg_write_a
*348 net75
*349 u_cpu\.next_pc\[0\]
*350 u_cpu\.next_pc\[10\]
*351 u_cpu\.next_pc\[11\]
*352 u_cpu\.next_pc\[12\]
*353 u_cpu\.next_pc\[13\]
*354 u_cpu\.next_pc\[14\]
*355 u_cpu\.next_pc\[15\]
*356 u_cpu\.next_pc\[1\]
*357 u_cpu\.next_pc\[2\]
*358 u_cpu\.next_pc\[3\]
*359 u_cpu\.next_pc\[4\]
*360 u_cpu\.next_pc\[5\]
*361 u_cpu\.next_pc\[6\]
*362 u_cpu\.next_pc\[7\]
*363 u_cpu\.next_pc\[8\]
*364 u_cpu\.next_pc\[9\]
*365 net93
*366 clknet_0_clk
*367 net
*368 net1
*369 net2
*370 net3
*371 net4
*372 net5
*373 net6
*374 net7
*375 net8
*376 net9
*377 net10
*378 net11
*411 clknet_1_1__leaf_clk
*412 clknet_1_0__leaf_clk
*413 net98
*414 net97
*415 net96
*416 valid_out_b
*417 valid_out_a
*418 pc_out[9]
*419 pc_out[8]
*420 pc_out[7]
*421 pc_out[6]
*422 pc_out[5]
*423 pc_out[4]
*424 pc_out[3]
*425 pc_out[2]
*426 pc_out[1]
*427 pc_out[15]
*428 pc_out[14]
*429 pc_out[13]
*430 pc_out[12]
*431 pc_out[11]
*432 pc_out[10]
*433 pc_out[0]
*434 ipc_out[1]
*435 net69
*436 net70
*437 net71
*438 net72
*439 net73
*440 net74
*441 _239_
*442 _240_
*443 _241_
*444 _242_
*445 _243_
*446 _244_
*447 _245_
*448 _246_
*449 _247_
*450 _248_
*451 _249_
*452 _250_
*453 _251_
*454 _252_
*455 _253_
*456 _254_
*457 _255_
*458 _256_
*459 _257_
*460 _258_
*461 _259_
*462 _260_
*463 _261_
*464 _262_
*465 _263_
*466 _264_
*467 _265_
*468 _266_
*469 _267_
*470 _268_
*471 _269_
*472 _270_
*473 _271_
*474 _272_
*475 _273_
*476 _274_
*477 _275_
*478 _276_
*479 _277_
*480 _278_
*481 _279_
*482 _280_
*483 _281_
*484 _282_
*485 _283_
*486 _284_
*487 _285_
*488 _286_
*489 _287_
*490 _288_
*491 _289_
*492 _290_
*493 _291_
*494 _292_
*495 _293_
*496 _294_
*497 _295_
*498 _296_
*499 _297_
*500 _298_
*501 _299_
*502 _300_
*503 _301_
*504 _302_
*505 _303_
*506 _304_
*507 _305_
*508 FILLER_0_189
*509 _307_
*510 _308_
*511 _309_
*512 FILLER_0_181
*513 _311_
*514 _312_
*515 _313_
*516 FILLER_0_178
*517 _315_
*518 _316_
*519 _317_
*520 _318_
*521 _319_
*522 _320_
*523 _321_
*524 _322_
*525 _323_
*526 _324_
*527 _325_
*528 _326_
*529 _327_
*530 _328_
*531 _329_
*532 _330_
*533 _331_
*534 _332_
*535 _333_
*536 _334_
*537 _335_
*538 _336_
*539 _337_
*540 _338_
*541 _339_
*542 _340_
*543 _341_
*544 _342_
*545 _343_
*546 _344_
*547 _345_
*548 _346_
*549 _347_
*550 _348_
*551 _349_
*552 _350_
*553 _351_
*554 _352_
*555 _353_
*556 _354_
*557 _355_
*558 _356_
*559 _357_
*560 _358_
*561 _359_
*562 _360_
*563 _361_
*564 _362_
*565 _363_
*566 _364_
*567 _365_
*568 _366_
*569 _367_
*570 _368_
*571 _369_
*572 _370_
*573 _371_
*574 _372_
*575 _373_
*576 _374_
*577 _375_
*578 _376_
*579 _377_
*580 _378_
*581 _379_
*582 _380_
*583 _381_
*584 _382_
*585 _383_
*586 _384_
*587 _385_
*588 _386_
*589 _387_
*590 _388_
*591 _389_
*592 _390_
*593 _391_
*594 _392_
*595 _393_
*596 _394_
*597 _395_
*598 _396_
*599 _397_
*600 _398_
*601 _399_
*602 _400_
*603 _401_
*604 _402_
*605 _403_
*606 _404_
*607 _405_
*608 _406_
*609 _407_
*610 _408_
*611 _409_
*612 _410_
*613 _411_
*614 _412_
*615 _413_
*616 _414_
*617 _415_
*618 _416_
*619 _417_
*620 _418_
*621 _419_
*622 _420_
*623 _421_
*624 _422_
*625 _423_
*626 _424_
*627 _425_
*628 _426_
*629 _427_
*630 _428_
*631 _429_
*632 _430_
*633 _431_
*634 _432_
*635 _433_
*636 _434_
*637 _435_
*638 _436_
*639 _437_
*640 _438_
*641 _439_
*642 TAP_TAPCELL_ROW_0_0
*643 _389__69
*644 FILLER_0_174
*645 FILLER_0_170
*646 FILLER_0_168
*647 FILLER_0_164
*648 FILLER_0_156
*649 FILLER_0_151
*650 FILLER_0_142
*651 FILLER_0_134
*652 FILLER_0_126
*653 FILLER_0_121
*654 FILLER_0_116
*655 FILLER_0_114
*656 FILLER_0_110
*657 FILLER_0_103
*658 FILLER_0_93
*659 FILLER_0_91
*660 FILLER_0_89
*661 FILLER_0_87
*662 FILLER_0_80
*663 FILLER_0_66
*664 FILLER_0_61
*665 FILLER_0_56
*666 FILLER_0_52
*667 FILLER_0_50
*668 FILLER_0_46
*669 FILLER_0_26
*670 FILLER_0_24
*671 FILLER_0_20
*672 FILLER_0_12
*673 FILLER_0_8
*674 FILLER_0_0
*675 clkload0
*676 clkbuf_1_1__f_clk
*677 clkbuf_1_0__f_clk
*678 place99
*679 place98
*680 place97
*681 output95
*682 output94
*683 output93
*684 output92
*685 output91
*686 output90
*687 output89
*688 output88
*689 output87
*690 output86
*691 output85
*692 output84
*693 output83
*694 output82
*695 output81
*696 output80
*697 output79
*698 output78
*699 output77
*700 input76
*701 clkbuf_0_clk
*702 u_cpu\.id_ex_reg_write_a\$_DFF_PN0_
*703 u_cpu\.id_ex_valid_a\$_DFF_PN0_
*704 u_cpu\.imem_addr\[0\]\$_DFF_PN0_
*705 u_cpu\.imem_addr\[10\]\$_DFF_PN0_
*706 u_cpu\.imem_addr\[11\]\$_DFF_PN0_
*707 u_cpu\.imem_addr\[12\]\$_DFF_PN0_
*708 u_cpu\.imem_addr\[13\]\$_DFF_PN0_
*709 u_cpu\.imem_addr\[14\]\$_DFF_PN0_
*710 u_cpu\.imem_addr\[15\]\$_DFF_PN0_
*711 u_cpu\.imem_addr\[1\]\$_DFF_PN0_
*712 u_cpu\.imem_addr\[2\]\$_DFF_PN0_
*713 u_cpu\.imem_addr\[3\]\$_DFF_PN0_
*714 u_cpu\.imem_addr\[4\]\$_DFF_PN0_
*715 u_cpu\.imem_addr\[5\]\$_DFF_PN0_
*716 u_cpu\.imem_addr\[6\]\$_DFF_PN0_
*717 u_cpu\.imem_addr\[7\]\$_DFF_PN0_
*718 u_cpu\.imem_addr\[8\]\$_DFF_PN0_
*719 u_cpu\.imem_addr\[9\]\$_DFF_PN0_
*720 u_cpu\.valid_out_a\$_DFF_PN0_
*721 _389__1
*722 _390__2
*723 _395__3
*724 _396__4
*725 _397__5
*726 _398__6
*727 _399__7
*728 _400__8
*729 _401__9
*730 _402__10
*731 _403__11
*732 _404__12
*733 _442__13
*734 _443__14
*735 _444__15
*736 _445__16
*737 _446__17
*738 _447__18
*739 _448__19
*740 _449__20
*741 _450__21
*742 _451__22
*743 _452__23
*744 _453__24
*745 _454__25
*746 _455__26
*747 _456__27
*748 _457__28
*749 _458__29
*750 _459__30
*751 _460__31
*752 _461__32
*753 _462__33
*754 _463__34
*755 _464__35
*756 _465__36
*757 _466__37
*758 _467__38
*759 _468__39
*760 _469__40
*761 _470__41
*762 _471__42
*763 _472__43
*764 _473__44
*765 _474__45
*766 _475__46
*767 _476__47
*768 _477__48
*769 _478__49
*770 _479__50
*771 _480__51
*772 _481__52
*773 _482__53
*774 _483__54
*775 _484__55
*776 _485__56
*777 _486__57
*778 _487__58
*779 _488__59
*780 _489__60
*781 _490__61
*782 _491__62
*783 _492__63
*784 _493__64
*785 _494__65
*786 _495__66
*787 _496__67
*788 _497__68
*789 _390__70
*790 _391__71
*791 _392__72
*792 _393__73
*793 _394__74
*794 u_cpu\.id_ex_reg_write_a\$_DFF_PN0__75
*795 TAP_TAPCELL_ROW_0_1
*796 TAP_TAPCELL_ROW_0_2
*797 TAP_TAPCELL_ROW_0_3
*798 TAP_TAPCELL_ROW_0_4
*799 TAP_TAPCELL_ROW_0_5
*800 TAP_TAPCELL_ROW_1_6
*801 TAP_TAPCELL_ROW_1_7
*802 TAP_TAPCELL_ROW_1_8
*803 TAP_TAPCELL_ROW_2_9
*804 TAP_TAPCELL_ROW_2_10
*805 TAP_TAPCELL_ROW_2_11
*806 TAP_TAPCELL_ROW_3_12
*807 TAP_TAPCELL_ROW_3_13
*808 TAP_TAPCELL_ROW_3_14
*809 TAP_TAPCELL_ROW_4_15
*810 TAP_TAPCELL_ROW_4_16
*811 TAP_TAPCELL_ROW_4_17
*812 TAP_TAPCELL_ROW_5_18
*813 TAP_TAPCELL_ROW_5_19
*814 TAP_TAPCELL_ROW_5_20
*815 TAP_TAPCELL_ROW_6_21
*816 TAP_TAPCELL_ROW_6_22
*817 TAP_TAPCELL_ROW_6_23
*818 TAP_TAPCELL_ROW_7_24
*819 TAP_TAPCELL_ROW_7_25
*820 TAP_TAPCELL_ROW_7_26
*821 TAP_TAPCELL_ROW_8_27
*822 TAP_TAPCELL_ROW_8_28
*823 TAP_TAPCELL_ROW_8_29
*824 TAP_TAPCELL_ROW_9_30
*825 TAP_TAPCELL_ROW_9_31
*826 TAP_TAPCELL_ROW_9_32
*827 TAP_TAPCELL_ROW_10_33
*828 TAP_TAPCELL_ROW_10_34
*829 TAP_TAPCELL_ROW_10_35
*830 TAP_TAPCELL_ROW_11_36
*831 TAP_TAPCELL_ROW_11_37
*832 TAP_TAPCELL_ROW_11_38
*833 TAP_TAPCELL_ROW_12_39
*834 TAP_TAPCELL_ROW_12_40
*835 TAP_TAPCELL_ROW_12_41
*836 TAP_TAPCELL_ROW_13_42
*837 TAP_TAPCELL_ROW_13_43
*838 TAP_TAPCELL_ROW_13_44
*839 TAP_TAPCELL_ROW_14_45
*840 TAP_TAPCELL_ROW_14_46
*841 TAP_TAPCELL_ROW_14_47
*842 TAP_TAPCELL_ROW_15_48
*843 TAP_TAPCELL_ROW_15_49
*844 TAP_TAPCELL_ROW_15_50
*845 TAP_TAPCELL_ROW_16_51
*846 TAP_TAPCELL_ROW_16_52
*847 TAP_TAPCELL_ROW_16_53
*848 TAP_TAPCELL_ROW_17_54
*849 TAP_TAPCELL_ROW_17_55
*850 TAP_TAPCELL_ROW_17_56
*851 TAP_TAPCELL_ROW_18_57
*852 TAP_TAPCELL_ROW_18_58
*853 TAP_TAPCELL_ROW_18_59
*854 TAP_TAPCELL_ROW_19_60
*855 TAP_TAPCELL_ROW_19_61
*856 TAP_TAPCELL_ROW_19_62
*857 TAP_TAPCELL_ROW_20_63
*858 TAP_TAPCELL_ROW_20_64
*859 TAP_TAPCELL_ROW_20_65
*860 TAP_TAPCELL_ROW_21_66
*861 TAP_TAPCELL_ROW_21_67
*862 TAP_TAPCELL_ROW_21_68
*863 TAP_TAPCELL_ROW_22_69
*864 TAP_TAPCELL_ROW_22_70
*865 TAP_TAPCELL_ROW_22_71
*866 TAP_TAPCELL_ROW_23_72
*867 TAP_TAPCELL_ROW_23_73
*868 TAP_TAPCELL_ROW_23_74
*869 TAP_TAPCELL_ROW_24_75
*870 TAP_TAPCELL_ROW_24_76
*871 TAP_TAPCELL_ROW_24_77
*872 TAP_TAPCELL_ROW_25_78
*873 TAP_TAPCELL_ROW_25_79
*874 TAP_TAPCELL_ROW_25_80
*875 TAP_TAPCELL_ROW_26_81
*876 TAP_TAPCELL_ROW_26_82
*877 TAP_TAPCELL_ROW_26_83
*878 TAP_TAPCELL_ROW_27_84
*879 TAP_TAPCELL_ROW_27_85
*880 TAP_TAPCELL_ROW_27_86
*881 TAP_TAPCELL_ROW_28_87
*882 TAP_TAPCELL_ROW_28_88
*883 TAP_TAPCELL_ROW_28_89
*884 TAP_TAPCELL_ROW_29_90
*885 TAP_TAPCELL_ROW_29_91
*886 TAP_TAPCELL_ROW_29_92
*887 TAP_TAPCELL_ROW_30_93
*888 TAP_TAPCELL_ROW_30_94
*889 TAP_TAPCELL_ROW_30_95
*890 TAP_TAPCELL_ROW_31_96
*891 TAP_TAPCELL_ROW_31_97
*892 TAP_TAPCELL_ROW_31_98
*893 TAP_TAPCELL_ROW_31_99
*894 TAP_TAPCELL_ROW_31_100
*895 TAP_TAPCELL_ROW_31_101
*896 FILLER_1_0
*897 FILLER_1_8
*898 FILLER_1_16
*899 FILLER_1_24
*900 FILLER_1_32
*901 FILLER_1_43
*902 FILLER_1_51
*903 FILLER_1_59
*904 FILLER_1_61
*905 FILLER_1_69
*906 FILLER_1_73
*907 FILLER_1_75
*908 FILLER_1_79
*909 FILLER_1_87
*910 FILLER_1_95
*911 FILLER_1_103
*912 FILLER_1_111
*913 FILLER_1_119
*914 FILLER_1_121
*915 FILLER_1_129
*916 FILLER_1_137
*917 FILLER_1_145
*918 FILLER_1_153
*919 FILLER_1_161
*920 FILLER_1_169
*921 FILLER_1_177
*922 FILLER_1_179
*923 FILLER_1_181
*924 FILLER_1_189
*925 FILLER_2_0
*926 FILLER_2_4
*927 FILLER_2_12
*928 FILLER_2_20
*929 FILLER_2_28
*930 FILLER_2_31
*931 FILLER_2_39
*932 FILLER_2_47
*933 FILLER_2_55
*934 FILLER_2_63
*935 FILLER_2_71
*936 FILLER_2_79
*937 FILLER_2_87
*938 FILLER_2_89
*939 FILLER_2_91
*940 FILLER_2_99
*941 FILLER_2_107
*942 FILLER_2_115
*943 FILLER_2_123
*944 FILLER_2_131
*945 FILLER_2_139
*946 FILLER_2_147
*947 FILLER_2_149
*948 FILLER_2_151
*949 FILLER_2_159
*950 FILLER_2_167
*951 FILLER_2_175
*952 FILLER_2_183
*953 FILLER_2_191
*954 FILLER_2_195
*955 FILLER_3_3
*956 FILLER_3_11
*957 FILLER_3_19
*958 FILLER_3_27
*959 FILLER_3_35
*960 FILLER_3_43
*961 FILLER_3_51
*962 FILLER_3_59
*963 FILLER_3_61
*964 FILLER_3_65
*965 FILLER_3_67
*966 FILLER_3_76
*967 FILLER_3_85
*968 FILLER_3_93
*969 FILLER_3_101
*970 FILLER_3_109
*971 FILLER_3_117
*972 FILLER_3_119
*973 FILLER_3_121
*974 FILLER_3_129
*975 FILLER_3_137
*976 FILLER_3_145
*977 FILLER_3_153
*978 FILLER_3_161
*979 FILLER_3_169
*980 FILLER_3_177
*981 FILLER_3_179
*982 FILLER_3_181
*983 FILLER_3_189
*984 FILLER_4_3
*985 FILLER_4_11
*986 FILLER_4_19
*987 FILLER_4_27
*988 FILLER_4_29
*989 FILLER_4_31
*990 FILLER_4_39
*991 FILLER_4_47
*992 FILLER_4_55
*993 FILLER_4_63
*994 FILLER_4_71
*995 FILLER_4_79
*996 FILLER_4_87
*997 FILLER_4_89
*998 FILLER_4_91
*999 FILLER_4_99
*1000 FILLER_4_101
*1001 FILLER_4_121
*1002 FILLER_4_129
*1003 FILLER_4_137
*1004 FILLER_4_145
*1005 FILLER_4_149
*1006 FILLER_4_151
*1007 FILLER_4_159
*1008 FILLER_4_167
*1009 FILLER_4_175
*1010 FILLER_4_183
*1011 FILLER_4_191
*1012 FILLER_4_195
*1013 FILLER_5_6
*1014 FILLER_5_14
*1015 FILLER_5_22
*1016 FILLER_5_30
*1017 FILLER_5_38
*1018 FILLER_5_46
*1019 FILLER_5_54
*1020 FILLER_5_58
*1021 FILLER_5_61
*1022 FILLER_5_65
*1023 FILLER_5_67
*1024 FILLER_5_71
*1025 FILLER_5_79
*1026 FILLER_5_94
*1027 FILLER_5_102
*1028 FILLER_5_121
*1029 FILLER_5_123
*1030 FILLER_5_132
*1031 FILLER_5_140
*1032 FILLER_5_148
*1033 FILLER_5_156
*1034 FILLER_5_164
*1035 FILLER_5_172
*1036 FILLER_5_181
*1037 FILLER_5_189
*1038 FILLER_6_3
*1039 FILLER_6_11
*1040 FILLER_6_19
*1041 FILLER_6_27
*1042 FILLER_6_29
*1043 FILLER_6_31
*1044 FILLER_6_39
*1045 FILLER_6_43
*1046 FILLER_6_45
*1047 FILLER_6_86
*1048 FILLER_6_91
*1049 FILLER_6_99
*1050 FILLER_6_116
*1051 FILLER_6_118
*1052 FILLER_6_129
*1053 FILLER_6_131
*1054 FILLER_6_146
*1055 FILLER_6_151
*1056 FILLER_6_173
*1057 FILLER_6_183
*1058 FILLER_6_187
*1059 FILLER_7_3
*1060 FILLER_7_7
*1061 FILLER_7_15
*1062 FILLER_7_23
*1063 FILLER_7_31
*1064 FILLER_7_39
*1065 FILLER_7_47
*1066 FILLER_7_55
*1067 FILLER_7_59
*1068 FILLER_7_61
*1069 FILLER_7_69
*1070 FILLER_7_77
*1071 FILLER_7_85
*1072 FILLER_7_93
*1073 FILLER_7_101
*1074 FILLER_7_106
*1075 FILLER_7_108
*1076 FILLER_7_115
*1077 FILLER_7_119
*1078 FILLER_7_121
*1079 FILLER_7_129
*1080 FILLER_7_133
*1081 FILLER_7_140
*1082 FILLER_7_145
*1083 FILLER_7_151
*1084 FILLER_7_172
*1085 FILLER_7_177
*1086 FILLER_7_179
*1087 FILLER_7_181
*1088 FILLER_7_190
*1089 FILLER_8_3
*1090 FILLER_8_7
*1091 FILLER_8_15
*1092 FILLER_8_23
*1093 FILLER_8_27
*1094 FILLER_8_29
*1095 FILLER_8_31
*1096 FILLER_8_39
*1097 FILLER_8_47
*1098 FILLER_8_55
*1099 FILLER_8_64
*1100 FILLER_8_72
*1101 FILLER_8_80
*1102 FILLER_8_88
*1103 FILLER_8_91
*1104 FILLER_8_99
*1105 FILLER_8_110
*1106 FILLER_8_122
*1107 FILLER_8_127
*1108 FILLER_8_145
*1109 FILLER_8_149
*1110 FILLER_8_151
*1111 FILLER_8_159
*1112 FILLER_8_163
*1113 FILLER_8_178
*1114 FILLER_8_186
*1115 FILLER_8_194
*1116 FILLER_8_196
*1117 FILLER_9_3
*1118 FILLER_9_11
*1119 FILLER_9_19
*1120 FILLER_9_27
*1121 FILLER_9_35
*1122 FILLER_9_43
*1123 FILLER_9_51
*1124 FILLER_9_55
*1125 FILLER_9_73
*1126 FILLER_9_89
*1127 FILLER_9_93
*1128 FILLER_9_95
*1129 FILLER_9_99
*1130 FILLER_9_106
*1131 FILLER_9_110
*1132 FILLER_9_115
*1133 FILLER_9_119
*1134 FILLER_9_143
*1135 FILLER_9_151
*1136 FILLER_9_159
*1137 FILLER_9_167
*1138 FILLER_9_175
*1139 FILLER_9_179
*1140 FILLER_9_181
*1141 FILLER_9_189
*1142 FILLER_10_3
*1143 FILLER_10_7
*1144 FILLER_10_15
*1145 FILLER_10_23
*1146 FILLER_10_27
*1147 FILLER_10_29
*1148 FILLER_10_31
*1149 FILLER_10_39
*1150 FILLER_10_47
*1151 FILLER_10_64
*1152 FILLER_10_69
*1153 FILLER_10_77
*1154 FILLER_10_79
*1155 FILLER_10_86
*1156 FILLER_10_107
*1157 FILLER_10_109
*1158 FILLER_10_120
*1159 FILLER_10_128
*1160 FILLER_10_136
*1161 FILLER_10_144
*1162 FILLER_10_148
*1163 FILLER_10_151
*1164 FILLER_10_155
*1165 FILLER_10_160
*1166 FILLER_10_164
*1167 FILLER_10_185
*1168 FILLER_10_193
*1169 FILLER_11_3
*1170 FILLER_11_7
*1171 FILLER_11_15
*1172 FILLER_11_23
*1173 FILLER_11_31
*1174 FILLER_11_39
*1175 FILLER_11_47
*1176 FILLER_11_55
*1177 FILLER_11_77
*1178 FILLER_11_81
*1179 FILLER_11_83
*1180 FILLER_11_100
*1181 FILLER_11_108
*1182 FILLER_11_116
*1183 FILLER_11_121
*1184 FILLER_11_129
*1185 FILLER_11_141
*1186 FILLER_11_145
*1187 FILLER_11_147
*1188 FILLER_11_165
*1189 FILLER_11_173
*1190 FILLER_11_177
*1191 FILLER_11_179
*1192 FILLER_11_181
*1193 FILLER_11_183
*1194 FILLER_11_192
*1195 FILLER_11_196
*1196 FILLER_12_3
*1197 FILLER_12_7
*1198 FILLER_12_15
*1199 FILLER_12_23
*1200 FILLER_12_27
*1201 FILLER_12_29
*1202 FILLER_12_31
*1203 FILLER_12_39
*1204 FILLER_12_47
*1205 FILLER_12_55
*1206 FILLER_12_76
*1207 FILLER_12_80
*1208 FILLER_12_82
*1209 FILLER_12_86
*1210 FILLER_12_104
*1211 FILLER_12_132
*1212 FILLER_12_151
*1213 FILLER_12_165
*1214 FILLER_12_167
*1215 FILLER_12_178
*1216 FILLER_12_182
*1217 FILLER_12_190
*1218 FILLER_12_194
*1219 FILLER_12_196
*1220 FILLER_13_3
*1221 FILLER_13_7
*1222 FILLER_13_15
*1223 FILLER_13_23
*1224 FILLER_13_31
*1225 FILLER_13_39
*1226 FILLER_13_47
*1227 FILLER_13_55
*1228 FILLER_13_59
*1229 FILLER_13_61
*1230 FILLER_13_65
*1231 FILLER_13_85
*1232 FILLER_13_93
*1233 FILLER_13_97
*1234 FILLER_13_101
*1235 FILLER_13_106
*1236 FILLER_13_110
*1237 FILLER_13_117
*1238 FILLER_13_119
*1239 FILLER_13_121
*1240 FILLER_13_129
*1241 FILLER_13_140
*1242 FILLER_13_144
*1243 FILLER_13_148
*1244 FILLER_13_189
*1245 FILLER_14_3
*1246 FILLER_14_11
*1247 FILLER_14_19
*1248 FILLER_14_27
*1249 FILLER_14_29
*1250 FILLER_14_31
*1251 FILLER_14_59
*1252 FILLER_14_67
*1253 FILLER_14_72
*1254 FILLER_14_80
*1255 FILLER_14_88
*1256 FILLER_14_104
*1257 FILLER_14_118
*1258 FILLER_14_149
*1259 FILLER_14_151
*1260 FILLER_14_164
*1261 FILLER_14_172
*1262 FILLER_14_180
*1263 FILLER_14_188
*1264 FILLER_14_196
*1265 FILLER_15_3
*1266 FILLER_15_13
*1267 FILLER_15_46
*1268 FILLER_15_54
*1269 FILLER_15_58
*1270 FILLER_15_61
*1271 FILLER_15_63
*1272 FILLER_15_74
*1273 FILLER_15_89
*1274 FILLER_15_93
*1275 FILLER_15_100
*1276 FILLER_15_108
*1277 FILLER_15_116
*1278 FILLER_15_121
*1279 FILLER_15_129
*1280 FILLER_15_140
*1281 FILLER_15_148
*1282 FILLER_15_156
*1283 FILLER_15_164
*1284 FILLER_15_172
*1285 FILLER_15_181
*1286 FILLER_15_183
*1287 FILLER_15_192
*1288 FILLER_15_196
*1289 FILLER_16_3
*1290 FILLER_16_15
*1291 FILLER_16_23
*1292 FILLER_16_27
*1293 FILLER_16_29
*1294 FILLER_16_31
*1295 FILLER_16_35
*1296 FILLER_16_48
*1297 FILLER_16_52
*1298 FILLER_16_70
*1299 FILLER_16_78
*1300 FILLER_16_82
*1301 FILLER_16_89
*1302 FILLER_16_91
*1303 FILLER_16_93
*1304 FILLER_16_105
*1305 FILLER_16_113
*1306 FILLER_16_121
*1307 FILLER_16_129
*1308 FILLER_16_147
*1309 FILLER_16_149
*1310 FILLER_16_151
*1311 FILLER_16_155
*1312 FILLER_16_196
*1313 FILLER_17_6
*1314 FILLER_17_10
*1315 FILLER_17_12
*1316 FILLER_17_33
*1317 FILLER_17_37
*1318 FILLER_17_46
*1319 FILLER_17_61
*1320 FILLER_17_76
*1321 FILLER_17_106
*1322 FILLER_17_108
*1323 FILLER_17_112
*1324 FILLER_17_116
*1325 FILLER_17_132
*1326 FILLER_17_156
*1327 FILLER_17_172
*1328 FILLER_17_181
*1329 FILLER_18_0
*1330 FILLER_18_8
*1331 FILLER_18_12
*1332 FILLER_18_22
*1333 FILLER_18_31
*1334 FILLER_18_39
*1335 FILLER_18_47
*1336 FILLER_18_55
*1337 FILLER_18_59
*1338 FILLER_18_77
*1339 FILLER_18_85
*1340 FILLER_18_89
*1341 FILLER_18_94
*1342 FILLER_18_111
*1343 FILLER_18_145
*1344 FILLER_18_151
*1345 FILLER_18_158
*1346 FILLER_18_166
*1347 FILLER_18_174
*1348 FILLER_18_182
*1349 FILLER_18_190
*1350 FILLER_18_194
*1351 FILLER_18_196
*1352 FILLER_19_3
*1353 FILLER_19_7
*1354 FILLER_19_9
*1355 FILLER_19_33
*1356 FILLER_19_53
*1357 FILLER_19_57
*1358 FILLER_19_59
*1359 FILLER_19_61
*1360 FILLER_19_72
*1361 FILLER_19_81
*1362 FILLER_19_88
*1363 FILLER_19_90
*1364 FILLER_19_101
*1365 FILLER_19_109
*1366 FILLER_19_117
*1367 FILLER_19_119
*1368 FILLER_19_121
*1369 FILLER_19_129
*1370 FILLER_19_137
*1371 FILLER_19_144
*1372 FILLER_19_146
*1373 FILLER_19_157
*1374 FILLER_19_159
*1375 FILLER_19_192
*1376 FILLER_19_196
*1377 FILLER_20_0
*1378 FILLER_20_4
*1379 FILLER_20_13
*1380 FILLER_20_17
*1381 FILLER_20_19
*1382 FILLER_20_55
*1383 FILLER_20_73
*1384 FILLER_20_81
*1385 FILLER_20_85
*1386 FILLER_20_98
*1387 FILLER_20_102
*1388 FILLER_20_106
*1389 FILLER_20_114
*1390 FILLER_20_142
*1391 FILLER_20_151
*1392 FILLER_20_160
*1393 FILLER_20_191
*1394 FILLER_20_195
*1395 FILLER_21_3
*1396 FILLER_21_11
*1397 FILLER_21_13
*1398 FILLER_21_34
*1399 FILLER_21_36
*1400 FILLER_21_49
*1401 FILLER_21_54
*1402 FILLER_21_58
*1403 FILLER_21_61
*1404 FILLER_21_69
*1405 FILLER_21_74
*1406 FILLER_21_82
*1407 FILLER_21_131
*1408 FILLER_21_139
*1409 FILLER_21_147
*1410 FILLER_21_158
*1411 FILLER_21_166
*1412 FILLER_21_170
*1413 FILLER_21_181
*1414 FILLER_21_183
*1415 FILLER_21_192
*1416 FILLER_21_196
*1417 FILLER_22_3
*1418 FILLER_22_11
*1419 FILLER_22_19
*1420 FILLER_22_27
*1421 FILLER_22_29
*1422 FILLER_22_31
*1423 FILLER_22_35
*1424 FILLER_22_37
*1425 FILLER_22_41
*1426 FILLER_22_49
*1427 FILLER_22_57
*1428 FILLER_22_75
*1429 FILLER_22_83
*1430 FILLER_22_87
*1431 FILLER_22_89
*1432 FILLER_22_94
*1433 FILLER_22_102
*1434 FILLER_22_110
*1435 FILLER_22_118
*1436 FILLER_22_126
*1437 FILLER_22_140
*1438 FILLER_22_144
*1439 FILLER_22_155
*1440 FILLER_22_163
*1441 FILLER_22_171
*1442 FILLER_22_179
*1443 FILLER_22_187
*1444 FILLER_22_195
*1445 FILLER_23_0
*1446 FILLER_23_8
*1447 FILLER_23_16
*1448 FILLER_23_24
*1449 FILLER_23_32
*1450 FILLER_23_49
*1451 FILLER_23_85
*1452 FILLER_23_91
*1453 FILLER_23_99
*1454 FILLER_23_107
*1455 FILLER_23_113
*1456 FILLER_23_163
*1457 FILLER_23_171
*1458 FILLER_23_179
*1459 FILLER_23_181
*1460 FILLER_23_189
*1461 FILLER_24_0
*1462 FILLER_24_8
*1463 FILLER_24_16
*1464 FILLER_24_24
*1465 FILLER_24_26
*1466 FILLER_24_47
*1467 FILLER_24_54
*1468 FILLER_24_68
*1469 FILLER_24_72
*1470 FILLER_24_76
*1471 FILLER_24_84
*1472 FILLER_24_88
*1473 FILLER_24_97
*1474 FILLER_24_103
*1475 FILLER_24_111
*1476 FILLER_24_119
*1477 FILLER_24_127
*1478 FILLER_24_135
*1479 FILLER_24_137
*1480 FILLER_24_141
*1481 FILLER_24_143
*1482 FILLER_24_147
*1483 FILLER_24_149
*1484 FILLER_24_151
*1485 FILLER_24_156
*1486 FILLER_24_164
*1487 FILLER_24_172
*1488 FILLER_24_180
*1489 FILLER_24_188
*1490 FILLER_24_196
*1491 FILLER_25_0
*1492 FILLER_25_8
*1493 FILLER_25_16
*1494 FILLER_25_24
*1495 FILLER_25_32
*1496 FILLER_25_37
*1497 FILLER_25_46
*1498 FILLER_25_54
*1499 FILLER_25_61
*1500 FILLER_25_63
*1501 FILLER_25_68
*1502 FILLER_25_76
*1503 FILLER_25_110
*1504 FILLER_25_118
*1505 FILLER_25_121
*1506 FILLER_25_123
*1507 FILLER_25_127
*1508 FILLER_25_135
*1509 FILLER_25_143
*1510 FILLER_25_151
*1511 FILLER_25_159
*1512 FILLER_25_167
*1513 FILLER_25_175
*1514 FILLER_25_179
*1515 FILLER_25_181
*1516 FILLER_25_189
*1517 FILLER_26_0
*1518 FILLER_26_8
*1519 FILLER_26_16
*1520 FILLER_26_24
*1521 FILLER_26_28
*1522 FILLER_26_31
*1523 FILLER_26_39
*1524 FILLER_26_47
*1525 FILLER_26_55
*1526 FILLER_26_63
*1527 FILLER_26_71
*1528 FILLER_26_73
*1529 FILLER_26_94
*1530 FILLER_26_112
*1531 FILLER_26_120
*1532 FILLER_26_128
*1533 FILLER_26_136
*1534 FILLER_26_144
*1535 FILLER_26_148
*1536 FILLER_26_151
*1537 FILLER_26_159
*1538 FILLER_26_167
*1539 FILLER_26_175
*1540 FILLER_26_183
*1541 FILLER_26_191
*1542 FILLER_26_195
*1543 FILLER_27_0
*1544 FILLER_27_8
*1545 FILLER_27_16
*1546 FILLER_27_24
*1547 FILLER_27_32
*1548 FILLER_27_81
*1549 FILLER_27_86
*1550 FILLER_27_94
*1551 FILLER_27_98
*1552 FILLER_27_121
*1553 FILLER_27_129
*1554 FILLER_27_137
*1555 FILLER_27_145
*1556 FILLER_27_153
*1557 FILLER_27_161
*1558 FILLER_27_169
*1559 FILLER_27_177
*1560 FILLER_27_179
*1561 FILLER_27_181
*1562 FILLER_27_189
*1563 FILLER_28_0
*1564 FILLER_28_8
*1565 FILLER_28_16
*1566 FILLER_28_24
*1567 FILLER_28_28
*1568 FILLER_28_31
*1569 FILLER_28_39
*1570 FILLER_28_47
*1571 FILLER_28_55
*1572 FILLER_28_63
*1573 FILLER_28_71
*1574 FILLER_28_79
*1575 FILLER_28_87
*1576 FILLER_28_89
*1577 FILLER_28_91
*1578 FILLER_28_99
*1579 FILLER_28_107
*1580 FILLER_28_115
*1581 FILLER_28_131
*1582 FILLER_28_139
*1583 FILLER_28_147
*1584 FILLER_28_149
*1585 FILLER_28_151
*1586 FILLER_28_159
*1587 FILLER_28_167
*1588 FILLER_28_175
*1589 FILLER_28_183
*1590 FILLER_28_191
*1591 FILLER_28_195
*1592 FILLER_29_0
*1593 FILLER_29_8
*1594 FILLER_29_16
*1595 FILLER_29_24
*1596 FILLER_29_32
*1597 FILLER_29_40
*1598 FILLER_29_48
*1599 FILLER_29_56
*1600 FILLER_29_61
*1601 FILLER_29_69
*1602 FILLER_29_77
*1603 FILLER_29_85
*1604 FILLER_29_93
*1605 FILLER_29_101
*1606 FILLER_29_109
*1607 FILLER_29_117
*1608 FILLER_29_119
*1609 FILLER_29_121
*1610 FILLER_29_129
*1611 FILLER_29_137
*1612 FILLER_29_145
*1613 FILLER_29_153
*1614 FILLER_29_161
*1615 FILLER_29_169
*1616 FILLER_29_177
*1617 FILLER_29_179
*1618 FILLER_29_181
*1619 FILLER_29_189
*1620 FILLER_30_0
*1621 FILLER_30_8
*1622 FILLER_30_16
*1623 FILLER_30_24
*1624 FILLER_30_28
*1625 FILLER_30_31
*1626 FILLER_30_39
*1627 FILLER_30_47
*1628 FILLER_30_55
*1629 FILLER_30_57
*1630 FILLER_30_66
*1631 FILLER_30_74
*1632 FILLER_30_82
*1633 FILLER_30_91
*1634 FILLER_30_99
*1635 FILLER_30_107
*1636 FILLER_30_115
*1637 FILLER_30_123
*1638 FILLER_30_131
*1639 FILLER_30_139
*1640 FILLER_30_147
*1641 FILLER_30_149
*1642 FILLER_30_151
*1643 FILLER_30_159
*1644 FILLER_30_167
*1645 FILLER_30_175
*1646 FILLER_30_183
*1647 FILLER_30_191
*1648 FILLER_30_195
*1649 FILLER_31_0
*1650 FILLER_31_8
*1651 FILLER_31_16
*1652 FILLER_31_24
*1653 FILLER_31_28
*1654 FILLER_31_31
*1655 FILLER_31_39
*1656 FILLER_31_47
*1657 FILLER_31_55
*1658 FILLER_31_59
*1659 FILLER_31_61
*1660 FILLER_31_69
*1661 FILLER_31_77
*1662 FILLER_31_79
*1663 FILLER_31_88
*1664 FILLER_31_91
*1665 FILLER_31_99
*1666 FILLER_31_107
*1667 FILLER_31_115
*1668 FILLER_31_119
*1669 FILLER_31_121
*1670 FILLER_31_129
*1671 FILLER_31_137
*1672 FILLER_31_145
*1673 FILLER_31_149
*1674 FILLER_31_151
*1675 FILLER_31_159
*1676 FILLER_31_167
*1677 FILLER_31_175
*1678 FILLER_31_179
*1679 FILLER_31_181
*1680 FILLER_31_189

*PORTS
clk I
debug_reg_addr[0] I
debug_reg_addr[1] I
debug_reg_addr[2] I
debug_reg_addr[3] I
debug_reg_data[0] O
debug_reg_data[10] O
debug_reg_data[11] O
debug_reg_data[12] O
debug_reg_data[13] O
debug_reg_data[14] O
debug_reg_data[15] O
debug_reg_data[16] O
debug_reg_data[17] O
debug_reg_data[18] O
debug_reg_data[19] O
debug_reg_data[1] O
debug_reg_data[20] O
debug_reg_data[21] O
debug_reg_data[22] O
debug_reg_data[23] O
debug_reg_data[24] O
debug_reg_data[25] O
debug_reg_data[26] O
debug_reg_data[27] O
debug_reg_data[28] O
debug_reg_data[29] O
debug_reg_data[2] O
debug_reg_data[30] O
debug_reg_data[31] O
debug_reg_data[32] O
debug_reg_data[33] O
debug_reg_data[34] O
debug_reg_data[35] O
debug_reg_data[36] O
debug_reg_data[37] O
debug_reg_data[38] O
debug_reg_data[39] O
debug_reg_data[3] O
debug_reg_data[40] O
debug_reg_data[41] O
debug_reg_data[42] O
debug_reg_data[43] O
debug_reg_data[44] O
debug_reg_data[45] O
debug_reg_data[46] O
debug_reg_data[47] O
debug_reg_data[48] O
debug_reg_data[49] O
debug_reg_data[4] O
debug_reg_data[50] O
debug_reg_data[51] O
debug_reg_data[52] O
debug_reg_data[53] O
debug_reg_data[5] O
debug_reg_data[6] O
debug_reg_data[7] O
debug_reg_data[8] O
debug_reg_data[9] O
halted O
ipc_out[0] O
ipc_out[1] O
pc_out[0] O
pc_out[10] O
pc_out[11] O
pc_out[12] O
pc_out[13] O
pc_out[14] O
pc_out[15] O
pc_out[1] O
pc_out[2] O
pc_out[3] O
pc_out[4] O
pc_out[5] O
pc_out[6] O
pc_out[7] O
pc_out[8] O
pc_out[9] O