*SPEF "ieee 1481-1999"
*DESIGN "ternary_cpu_system"
*DATE "21:41:26 Sunday December 28, 2025"
*VENDOR "The OpenROAD Project"
*PROGRAM "OpenROAD"
*VERSION "24Q3-11673-g154f14ab7e"
*DESIGN_FLOW "NAME_SCOPE LOCAL" "PIN_CAP NONE"
*DIVIDER /
*DELIMITER :
*BUS_DELIMITER []
*T_UNIT 1 NS
*C_UNIT 1 PF
*R_UNIT 1 OHM
*L_UNIT 1 HENRY

*NAME_MAP
*1 _000_
*2 _001_
*3 _002_
*4 _003_
*5 _004_
*6 _005_
*7 _006_
*8 _007_
*9 _008_
*10 _009_
*11 _010_
*12 _011_
*13 _012_
*14 _013_
*15 _014_
*16 _015_
*17 _016_
*18 _017_
*19 _018_
*20 _019_
*21 _020_
*22 _021_
*23 _022_
*24 _023_
*25 _024_
*26 _025_
*27 _026_
*28 _027_
*29 _028_
*30 _029_
*31 _030_
*32 _031_
*33 _032_
*34 _033_
*35 _034_
*36 _035_
*37 _036_
*38 _037_
*39 _038_
*40 _039_
*41 _040_
*42 _041_
*43 _042_
*44 _043_
*45 _044_
*46 _045_
*47 _046_
*48 _047_
*49 _048_
*50 _049_
*51 _050_
*52 _051_
*53 _052_
*54 _053_
*55 _054_
*56 _055_
*57 _056_
*58 _057_
*59 _058_
*60 _059_
*61 _060_
*62 _061_
*63 _062_
*64 _063_
*65 _064_
*66 _065_
*67 _066_
*68 _067_
*69 _068_
*70 _069_
*71 _070_
*72 _071_
*73 _072_
*74 _073_
*75 _074_
*76 _075_
*77 _076_
*78 _077_
*79 _078_
*80 _079_
*81 _080_
*82 _081_
*83 _082_
*84 _083_
*85 _084_
*86 _085_
*87 _086_
*88 _087_
*89 _088_
*90 _089_
*91 _090_
*92 _091_
*93 _092_
*94 _093_
*95 _094_
*96 _095_
*97 _096_
*98 _097_
*99 _098_
*100 _099_
*101 _100_
*102 _101_
*103 _102_
*104 _103_
*105 _104_
*106 _105_
*107 _106_
*108 _107_
*109 _108_
*110 _109_
*111 _110_
*112 _111_
*113 _112_
*114 _113_
*115 _114_
*116 _115_
*117 _116_
*118 _117_
*119 _118_
*120 _119_
*121 _120_
*122 _121_
*123 _122_
*124 _123_
*125 _124_
*126 _125_
*127 _126_
*128 _127_
*129 _128_
*130 _129_
*131 _130_
*132 _131_
*133 _132_
*134 _133_
*135 _134_
*136 _135_
*137 _136_
*138 _137_
*140 _139_
*141 _140_
*142 _141_
*143 _142_
*144 _143_
*145 _144_
*146 _145_
*147 _146_
*149 net229
*150 _149_
*151 _150_
*152 _151_
*153 _152_
*154 _153_
*155 _154_
*156 _155_
*157 _156_
*158 _157_
*159 _158_
*160 _159_
*161 _160_
*162 _161_
*163 _162_
*164 _163_
*165 _164_
*166 _165_
*167 _166_
*168 _167_
*169 _168_
*170 _169_
*171 _170_
*172 _171_
*173 _172_
*174 _173_
*175 _174_
*176 _175_
*177 _176_
*178 _177_
*179 _178_
*180 _179_
*181 _180_
*182 _181_
*183 _182_
*184 _183_
*185 _184_
*186 _185_
*187 _186_
*188 _187_
*189 _188_
*190 _189_
*191 _190_
*192 _191_
*193 _192_
*194 _193_
*195 _194_
*196 _195_
*197 _196_
*198 _197_
*199 _198_
*200 _199_
*201 _200_
*202 _201_
*203 _202_
*204 _203_
*205 _204_
*206 _205_
*207 _206_
*208 _207_
*209 _208_
*210 _209_
*211 _210_
*212 _211_
*213 _212_
*214 _213_
*215 _214_
*216 _215_
*217 _216_
*218 _217_
*219 _218_
*220 _219_
*221 _220_
*222 _221_
*223 _222_
*224 _223_
*225 _224_
*226 _225_
*227 _226_
*228 _227_
*229 _228_
*230 _229_
*231 _230_
*232 _231_
*233 _232_
*234 _233_
*235 _234_
*236 _235_
*237 _236_
*238 _237_
*239 _238_
*240 _239_
*241 _240_
*242 _241_
*243 _242_
*244 _243_
*245 _244_
*246 _245_
*247 _246_
*248 _247_
*249 _248_
*250 _249_
*251 _250_
*252 _251_
*253 _252_
*254 _253_
*256 net68
*257 clk
*258 debug_reg_addr[0]
*259 debug_reg_addr[1]
*260 debug_reg_addr[2]
*261 debug_reg_addr[3]
*262 debug_reg_data[0]
*263 debug_reg_data[10]
*264 debug_reg_data[11]
*265 debug_reg_data[12]
*266 debug_reg_data[13]
*267 debug_reg_data[14]
*268 debug_reg_data[15]
*269 debug_reg_data[16]
*270 debug_reg_data[17]
*271 debug_reg_data[18]
*272 debug_reg_data[19]
*273 debug_reg_data[1]
*274 debug_reg_data[20]
*275 debug_reg_data[21]
*276 debug_reg_data[22]
*277 debug_reg_data[23]
*278 debug_reg_data[24]
*279 debug_reg_data[25]
*280 debug_reg_data[26]
*281 debug_reg_data[27]
*282 debug_reg_data[28]
*283 debug_reg_data[29]
*284 debug_reg_data[2]
*285 debug_reg_data[30]
*286 debug_reg_data[31]
*287 debug_reg_data[32]
*288 debug_reg_data[33]
*289 debug_reg_data[34]
*290 debug_reg_data[35]
*291 debug_reg_data[36]
*292 debug_reg_data[37]
*293 debug_reg_data[38]
*294 debug_reg_data[39]
*295 debug_reg_data[3]
*296 debug_reg_data[40]
*297 debug_reg_data[41]
*298 debug_reg_data[42]
*299 debug_reg_data[43]
*300 debug_reg_data[44]
*301 debug_reg_data[45]
*302 debug_reg_data[46]
*303 debug_reg_data[47]
*304 debug_reg_data[48]
*305 debug_reg_data[49]
*306 debug_reg_data[4]
*307 debug_reg_data[50]
*308 debug_reg_data[51]
*309 debug_reg_data[52]
*310 debug_reg_data[53]
*311 debug_reg_data[5]
*312 debug_reg_data[6]
*313 debug_reg_data[7]
*314 debug_reg_data[8]
*315 debug_reg_data[9]
*316 halted
*317 ipc_out[0]
*318 net95
*319 net96
*320 net97
*321 net98
*322 net99
*323 net100
*324 net101
*325 net102
*326 net103
*327 net104
*328 net105
*329 net106
*330 net107
*331 net108
*332 net109
*333 net110
*334 net111
*335 prog_addr[0]
*336 prog_addr[1]
*337 prog_addr[2]
*338 prog_addr[3]
*339 prog_addr[4]
*340 prog_addr[5]
*341 prog_addr[6]
*342 prog_addr[7]
*343 prog_data[0]
*344 prog_data[10]
*345 prog_data[11]
*346 prog_data[12]
*347 prog_data[13]
*348 prog_data[14]
*349 prog_data[15]
*350 prog_data[16]
*351 prog_data[17]
*352 prog_data[1]
*353 prog_data[2]
*354 prog_data[3]
*355 prog_data[4]
*356 prog_data[5]
*357 prog_data[6]
*358 prog_data[7]
*359 prog_data[8]
*360 prog_data[9]
*361 prog_mode
*362 prog_we
*363 rst_n
*364 u_cpu\.ex_wb_reg_write_a
*365 net94
*366 u_cpu\.next_pc\[0\]
*367 u_cpu\.next_pc\[10\]
*368 u_cpu\.next_pc\[11\]
*369 u_cpu\.next_pc\[12\]
*370 u_cpu\.next_pc\[13\]
*371 u_cpu\.next_pc\[14\]
*372 u_cpu\.next_pc\[15\]
*373 u_cpu\.next_pc\[1\]
*374 u_cpu\.next_pc\[2\]
*375 u_cpu\.next_pc\[3\]
*376 u_cpu\.next_pc\[4\]
*377 u_cpu\.next_pc\[5\]
*378 u_cpu\.next_pc\[6\]
*379 u_cpu\.next_pc\[7\]
*380 u_cpu\.next_pc\[8\]
*381 u_cpu\.next_pc\[9\]
*382 net112
*383 net243
*384 net
*385 net1
*386 net2
*387 net3
*388 net4
*389 net5
*390 net6
*391 net7
*392 net8
*393 net9
*394 net10
*395 net11
*396 net227
*397 net233
*400 net235
*401 net228
*403 net226
*405 net225
*406 net224
*407 net223
*410 net242
*411 net221
*412 net220
*413 clknet_1_0__leaf_clk
*415 net222
*416 net219
*418 net218
*420 net217
*422 net216
*425 net215
*429 net214
*432 net213
*433 valid_out_b
*434 valid_out_a
*435 pc_out[9]
*436 pc_out[8]
*437 pc_out[7]
*438 pc_out[6]
*439 pc_out[5]
*440 pc_out[4]
*441 pc_out[3]
*442 pc_out[2]
*443 pc_out[1]
*444 pc_out[15]
*445 pc_out[14]
*446 pc_out[13]
*447 pc_out[12]
*448 pc_out[11]
*449 pc_out[10]
*450 pc_out[0]
*451 ipc_out[1]
*452 net69
*453 net70
*454 net71
*455 net72
*456 net73
*457 net74
*458 net75
*459 net76
*460 net77
*461 net78
*462 net79
*463 net80
*464 net81
*465 net82
*466 net83
*467 net84
*468 net85
*469 net86
*470 net87
*471 net88
*472 net89
*473 net90
*474 net91
*475 net92
*476 net93
*478 net230
*481 net240
*482 net231
*483 net232
*484 net237
*485 net236
*486 net234
*487 net238
*488 net239
*490 net241
*493 net244
*494 clknet_0_clk
*499 net211
*500 clknet_1_1__leaf_clk
*501 net212
*502 _256_
*503 _257_
*504 _258_
*505 _259_
*506 _260_
*507 _261_
*508 FILLER_0_77
*509 _263_
*510 _264_
*511 _265_
*512 _266_
*513 _267_
*514 _268_
*515 _269_
*516 _270_
*517 _271_
*518 _272_
*519 _273_
*520 _274_
*521 _275_
*522 _276_
*523 _277_
*524 _278_
*525 _279_
*526 _280_
*527 _281_
*528 _282_
*529 _283_
*530 _284_
*531 _285_
*532 _286_
*533 _287_
*534 _288_
*535 _289_
*536 _290_
*537 _291_
*538 _292_
*539 _293_
*540 _294_
*541 _295_
*542 _296_
*543 _297_
*544 _298_
*545 _299_
*546 _300_
*547 _301_
*548 _302_
*549 _303_
*550 _304_
*551 _305_
*552 _306_
*553 _307_
*554 _308_
*555 _309_
*556 _310_
*557 _311_
*558 _312_
*559 _313_
*560 _314_
*561 _315_
*562 _316_
*563 _317_
*564 _318_
*565 _319_
*566 _320_
*567 _321_
*568 _322_
*569 _323_
*570 _324_
*571 _325_
*572 _326_
*573 _327_
*574 _328_
*575 _329_
*576 _330_
*577 FILLER_0_75
*578 place230
*579 _333_
*580 _334_
*581 _335_
*582 _336_
*583 _337_
*584 _338_
*585 _339_
*586 _340_
*587 _341_
*588 _342_
*589 _343_
*590 _344_
*591 _345_
*592 _346_
*593 _347_
*594 _348_
*595 _349_
*596 _350_
*597 _351_
*598 _352_
*599 _353_
*600 _354_
*601 _355_
*602 _356_
*603 _357_
*604 _358_
*605 _359_
*606 _360_
*607 _361_
*608 _362_
*609 _363_
*610 _364_
*611 _365_
*612 _366_
*613 _367_
*614 _368_
*615 _369_
*616 _370_
*617 _371_
*618 _372_
*619 _373_
*620 _374_
*621 _375_
*622 _376_
*623 _377_
*624 _378_
*625 _379_
*626 _380_
*627 _381_
*628 _382_
*629 _383_
*630 _384_
*631 _385_
*632 _386_
*633 _387_
*634 _388_
*635 _389_
*636 _390_
*637 _391_
*638 _392_
*639 _393_
*640 _394_
*641 _395_
*642 _396_
*643 _397_
*644 _398_
*645 _399_
*646 _400_
*647 _401_
*648 _402_
*649 _403_
*650 _404_
*651 _405_
*652 _406_
*653 _407_
*654 _408_
*655 _409_
*656 _410_
*657 _411_
*658 _412_
*659 _413_
*660 _414_
*661 _415_
*662 _416_
*663 _417_
*664 _418_
*665 _419_
*666 _420_
*667 _421_
*668 _422_
*669 _423_
*670 _424_
*671 _425_
*672 _426_
*673 _427_
*674 _428_
*675 _429_
*676 _430_
*677 _431_
*678 _432_
*679 _433_
*680 _434_
*681 _435_
*682 _436_
*683 _437_
*684 _438_
*685 _439_
*686 _440_
*687 _441_
*688 _442_
*689 _443_
*690 _444_
*691 _445_
*692 _446_
*693 _447_
*694 _448_
*695 _449_
*696 _450_
*697 _451_
*698 _452_
*699 _453_
*700 _454_
*701 _455_
*702 _456_
*703 _457_
*704 _458_
*705 _459_
*706 _460_
*707 _461_
*708 _462_
*709 _463_
*710 _464_
*711 _465_
*712 _466_
*713 _467_
*714 _468_
*715 _469_
*716 _470_
*717 _471_
*718 _472_
*719 _473_
*720 PHY_EDGE_ROW_0_Right_0
*721 _423__69
*722 place228
*723 place234
*724 FILLER_0_95
*725 FILLER_0_87
*726 place236
*727 place229
*728 FILLER_0_104
*729 place227
*730 FILLER_0_122
*731 place226
*732 place225
*733 place224
*734 FILLER_0_143
*735 FILLER_0_133
*736 place243
*737 place222
*738 place221
*739 clkbuf_1_0__f_clk
*740 FILLER_1_2
*741 place223
*742 place220
*743 FILLER_1_24
*744 place219
*745 FILLER_1_37
*746 place218
*747 FILLER_1_56
*748 place217
*749 FILLER_1_104
*750 FILLER_1_92
*751 place216
*752 FILLER_1_141
*753 FILLER_1_135
*754 FILLER_1_113
*755 place215
*756 FILLER_2_19
*757 FILLER_2_5
*758 place214
*759 output114
*760 output113
*761 output112
*762 output111
*763 output110
*764 output109
*765 output108
*766 output107
*767 output106
*768 output105
*769 output104
*770 output103
*771 output102
*772 output101
*773 output100
*774 output99
*775 output98
*776 output97
*777 output96
*778 input95
*779 place244
*780 u_cpu\.id_ex_valid_a\$_DFF_PN0_
*781 u_cpu\.if_id_valid_b\$_DFF_PN0_
*782 u_cpu\.imem_addr\[0\]\$_DFF_PN0_
*783 u_cpu\.imem_addr\[10\]\$_DFF_PN0_
*784 u_cpu\.imem_addr\[11\]\$_DFF_PN0_
*785 u_cpu\.imem_addr\[12\]\$_DFF_PN0_
*786 u_cpu\.imem_addr\[13\]\$_DFF_PN0_
*787 u_cpu\.imem_addr\[14\]\$_DFF_PN0_
*788 u_cpu\.imem_addr\[15\]\$_DFF_PN0_
*789 u_cpu\.imem_addr\[1\]\$_DFF_PN0_
*790 u_cpu\.imem_addr\[2\]\$_DFF_PN0_
*791 u_cpu\.imem_addr\[3\]\$_DFF_PN0_
*792 u_cpu\.imem_addr\[4\]\$_DFF_PN0_
*793 u_cpu\.imem_addr\[5\]\$_DFF_PN0_
*794 u_cpu\.imem_addr\[6\]\$_DFF_PN0_
*795 u_cpu\.imem_addr\[7\]\$_DFF_PN0_
*796 u_cpu\.imem_addr\[8\]\$_DFF_PN0_
*797 u_cpu\.imem_addr\[9\]\$_DFF_PN0_
*798 u_cpu\.valid_out_a\$_DFF_PN0_
*799 _423__1
*800 _424__2
*801 _429__3
*802 _430__4
*803 _431__5
*804 _432__6
*805 _433__7
*806 _434__8
*807 _435__9
*808 _436__10
*809 _437__11
*810 _438__12
*811 _476__13
*812 _477__14
*813 _478__15
*814 _479__16
*815 _480__17
*816 _481__18
*817 _482__19
*818 _483__20
*819 _484__21
*820 _485__22
*821 _486__23
*822 _487__24
*823 _488__25
*824 _489__26
*825 _490__27
*826 _491__28
*827 _492__29
*828 _493__30
*829 _494__31
*830 _495__32
*831 _496__33
*832 _497__34
*833 _498__35
*834 _499__36
*835 _500__37
*836 _501__38
*837 _502__39
*838 _503__40
*839 _504__41
*840 _505__42
*841 _506__43
*842 _507__44
*843 _508__45
*844 _509__46
*845 _510__47
*846 _511__48
*847 _512__49
*848 _513__50
*849 _514__51
*850 _515__52
*851 _516__53
*852 _517__54
*853 _518__55
*854 _519__56
*855 _520__57
*856 _521__58
*857 _522__59
*858 _523__60
*859 _524__61
*860 _525__62
*861 _526__63
*862 _527__64
*863 _528__65
*864 _529__66
*865 _530__67
*866 _531__68
*867 _424__70
*868 _425__71
*869 _426__72
*870 _427__73
*871 _428__74
*872 u_cpu\.id_ex_valid_a\$_DFF_PN0__75
*873 u_cpu\.if_id_valid_b\$_DFF_PN0__76
*874 u_cpu\.if_id_valid_b\$_DFF_PN0__77
*875 u_cpu\.imem_addr\[0\]\$_DFF_PN0__78
*876 u_cpu\.imem_addr\[10\]\$_DFF_PN0__79
*877 u_cpu\.imem_addr\[11\]\$_DFF_PN0__80
*878 u_cpu\.imem_addr\[12\]\$_DFF_PN0__81
*879 u_cpu\.imem_addr\[13\]\$_DFF_PN0__82
*880 u_cpu\.imem_addr\[14\]\$_DFF_PN0__83
*881 u_cpu\.imem_addr\[15\]\$_DFF_PN0__84
*882 u_cpu\.imem_addr\[1\]\$_DFF_PN0__85
*883 u_cpu\.imem_addr\[2\]\$_DFF_PN0__86
*884 u_cpu\.imem_addr\[3\]\$_DFF_PN0__87
*885 u_cpu\.imem_addr\[4\]\$_DFF_PN0__88
*886 u_cpu\.imem_addr\[5\]\$_DFF_PN0__89
*887 u_cpu\.imem_addr\[6\]\$_DFF_PN0__90
*888 u_cpu\.imem_addr\[7\]\$_DFF_PN0__91
*889 u_cpu\.imem_addr\[8\]\$_DFF_PN0__92
*890 u_cpu\.imem_addr\[9\]\$_DFF_PN0__93
*891 u_cpu\.valid_out_a\$_DFF_PN0__94
*892 PHY_EDGE_ROW_1_Right_1
*893 PHY_EDGE_ROW_2_Right_2
*894 PHY_EDGE_ROW_3_Right_3
*895 PHY_EDGE_ROW_4_Right_4
*896 PHY_EDGE_ROW_5_Right_5
*897 PHY_EDGE_ROW_6_Right_6
*898 PHY_EDGE_ROW_7_Right_7
*899 PHY_EDGE_ROW_8_Right_8
*900 PHY_EDGE_ROW_9_Right_9
*901 PHY_EDGE_ROW_10_Right_10
*902 PHY_EDGE_ROW_11_Right_11
*903 PHY_EDGE_ROW_12_Right_12
*904 PHY_EDGE_ROW_13_Right_13
*905 PHY_EDGE_ROW_14_Right_14
*906 PHY_EDGE_ROW_15_Right_15
*907 PHY_EDGE_ROW_16_Right_16
*908 PHY_EDGE_ROW_17_Right_17
*909 PHY_EDGE_ROW_18_Right_18
*910 PHY_EDGE_ROW_19_Right_19
*911 PHY_EDGE_ROW_20_Right_20
*912 PHY_EDGE_ROW_21_Right_21
*913 PHY_EDGE_ROW_22_Right_22
*914 PHY_EDGE_ROW_23_Right_23
*915 PHY_EDGE_ROW_24_Right_24
*916 PHY_EDGE_ROW_25_Right_25
*917 PHY_EDGE_ROW_26_Right_26
*918 PHY_EDGE_ROW_27_Right_27
*919 PHY_EDGE_ROW_28_Right_28
*920 PHY_EDGE_ROW_0_Left_29
*921 PHY_EDGE_ROW_1_Left_30
*922 PHY_EDGE_ROW_2_Left_31
*923 PHY_EDGE_ROW_3_Left_32
*924 PHY_EDGE_ROW_4_Left_33
*925 PHY_EDGE_ROW_5_Left_34
*926 PHY_EDGE_ROW_6_Left_35
*927 PHY_EDGE_ROW_7_Left_36
*928 PHY_EDGE_ROW_8_Left_37
*929 PHY_EDGE_ROW_9_Left_38
*930 PHY_EDGE_ROW_10_Left_39
*931 PHY_EDGE_ROW_11_Left_40
*932 PHY_EDGE_ROW_12_Left_41
*933 PHY_EDGE_ROW_13_Left_42
*934 PHY_EDGE_ROW_14_Left_43
*935 PHY_EDGE_ROW_15_Left_44
*936 PHY_EDGE_ROW_16_Left_45
*937 PHY_EDGE_ROW_17_Left_46
*938 PHY_EDGE_ROW_18_Left_47
*939 PHY_EDGE_ROW_19_Left_48
*940 PHY_EDGE_ROW_20_Left_49
*941 PHY_EDGE_ROW_21_Left_50
*942 PHY_EDGE_ROW_22_Left_51
*943 PHY_EDGE_ROW_23_Left_52
*944 PHY_EDGE_ROW_24_Left_53
*945 PHY_EDGE_ROW_25_Left_54
*946 PHY_EDGE_ROW_26_Left_55
*947 PHY_EDGE_ROW_27_Left_56
*948 PHY_EDGE_ROW_28_Left_57
*949 place231
*950 FILLER_0_68
*951 FILLER_0_61
*952 place241
*953 place232
*954 place233
*955 place238
*956 place237
*957 place235
*958 place239
*959 place240
*960 FILLER_0_39
*961 place242
*962 FILLER_0_54
*963 FILLER_0_32
*964 clkload0
*965 clkbuf_0_clk
*966 wire245
*967 FILLER_0_2
*968 FILLER_0_14
*969 FILLER_0_24
*970 place212
*971 clkbuf_1_1__f_clk
*972 place213
*973 FILLER_2_49
*974 FILLER_2_60
*975 FILLER_2_74
*976 FILLER_2_104
*977 FILLER_2_126
*978 FILLER_2_141
*979 FILLER_2_147
*980 FILLER_3_2
*981 FILLER_3_16
*982 FILLER_3_43
*983 FILLER_3_51
*984 FILLER_3_57
*985 FILLER_3_62
*986 FILLER_3_69
*987 FILLER_3_91
*988 FILLER_3_95
*989 FILLER_3_99
*990 FILLER_3_103
*991 FILLER_3_110
*992 FILLER_3_117
*993 FILLER_3_119
*994 FILLER_3_128
*995 FILLER_3_141
*996 FILLER_4_8
*997 FILLER_4_30
*998 FILLER_4_32
*999 FILLER_4_36
*1000 FILLER_4_40
*1001 FILLER_4_50
*1002 FILLER_4_69
*1003 FILLER_4_87
*1004 FILLER_4_116
*1005 FILLER_5_5
*1006 FILLER_5_11
*1007 FILLER_5_31
*1008 FILLER_5_50
*1009 FILLER_5_60
*1010 FILLER_5_64
*1011 FILLER_5_77
*1012 FILLER_5_84
*1013 FILLER_5_94
*1014 FILLER_5_96
*1015 FILLER_5_100
*1016 FILLER_5_108
*1017 FILLER_5_130
*1018 FILLER_5_140
*1019 FILLER_5_145
*1020 FILLER_5_147
*1021 FILLER_6_2
*1022 FILLER_6_6
*1023 FILLER_6_12
*1024 FILLER_6_20
*1025 FILLER_6_27
*1026 FILLER_6_33
*1027 FILLER_6_53
*1028 FILLER_6_75
*1029 FILLER_6_85
*1030 FILLER_6_89
*1031 FILLER_6_93
*1032 FILLER_6_108
*1033 FILLER_6_112
*1034 FILLER_6_119
*1035 FILLER_6_128
*1036 FILLER_6_132
*1037 FILLER_6_136
*1038 FILLER_6_140
*1039 FILLER_6_144
*1040 FILLER_7_2
*1041 FILLER_7_14
*1042 FILLER_7_28
*1043 FILLER_7_34
*1044 FILLER_7_38
*1045 FILLER_7_50
*1046 FILLER_7_56
*1047 FILLER_7_58
*1048 FILLER_7_71
*1049 FILLER_7_79
*1050 FILLER_7_89
*1051 FILLER_7_91
*1052 FILLER_7_110
*1053 FILLER_8_2
*1054 FILLER_8_16
*1055 FILLER_8_18
*1056 FILLER_8_39
*1057 FILLER_8_41
*1058 FILLER_8_45
*1059 FILLER_8_55
*1060 FILLER_8_60
*1061 FILLER_8_70
*1062 FILLER_8_87
*1063 FILLER_8_95
*1064 FILLER_8_109
*1065 FILLER_8_115
*1066 FILLER_8_128
*1067 FILLER_8_146
*1068 FILLER_9_5
*1069 FILLER_9_19
*1070 FILLER_9_21
*1071 FILLER_9_28
*1072 FILLER_9_34
*1073 FILLER_9_93
*1074 FILLER_9_103
*1075 FILLER_9_146
*1076 FILLER_10_5
*1077 FILLER_10_34
*1078 FILLER_10_40
*1079 FILLER_10_63
*1080 FILLER_10_69
*1081 FILLER_10_89
*1082 FILLER_10_93
*1083 FILLER_10_129
*1084 FILLER_11_5
*1085 FILLER_11_11
*1086 FILLER_11_54
*1087 FILLER_11_62
*1088 FILLER_11_72
*1089 FILLER_11_98
*1090 FILLER_11_107
*1091 FILLER_11_109
*1092 FILLER_11_127
*1093 FILLER_11_143
*1094 FILLER_11_147
*1095 FILLER_12_2
*1096 FILLER_12_13
*1097 FILLER_12_20
*1098 FILLER_12_26
*1099 FILLER_12_33
*1100 FILLER_12_46
*1101 FILLER_12_50
*1102 FILLER_12_54
*1103 FILLER_12_56
*1104 FILLER_12_60
*1105 FILLER_12_70
*1106 FILLER_12_72
*1107 FILLER_12_76
*1108 FILLER_12_80
*1109 FILLER_12_90
*1110 FILLER_12_92
*1111 FILLER_12_99
*1112 FILLER_12_109
*1113 FILLER_12_122
*1114 FILLER_12_132
*1115 FILLER_12_139
*1116 FILLER_12_145
*1117 FILLER_12_147
*1118 FILLER_13_5
*1119 FILLER_13_11
*1120 FILLER_13_35
*1121 FILLER_13_37
*1122 FILLER_13_41
*1123 FILLER_13_47
*1124 FILLER_13_82
*1125 FILLER_13_128
*1126 FILLER_13_130
*1127 FILLER_14_2
*1128 FILLER_14_6
*1129 FILLER_14_21
*1130 FILLER_14_48
*1131 FILLER_14_64
*1132 FILLER_14_72
*1133 FILLER_14_79
*1134 FILLER_14_91
*1135 FILLER_14_93
*1136 FILLER_14_102
*1137 FILLER_14_146
*1138 FILLER_15_2
*1139 FILLER_15_16
*1140 FILLER_15_24
*1141 FILLER_15_28
*1142 FILLER_15_35
*1143 FILLER_15_49
*1144 FILLER_15_59
*1145 FILLER_15_65
*1146 FILLER_15_80
*1147 FILLER_15_84
*1148 FILLER_15_93
*1149 FILLER_15_99
*1150 FILLER_15_130
*1151 FILLER_15_134
*1152 FILLER_15_141
*1153 FILLER_15_147
*1154 FILLER_16_13
*1155 FILLER_16_19
*1156 FILLER_16_25
*1157 FILLER_16_31
*1158 FILLER_16_44
*1159 FILLER_16_56
*1160 FILLER_16_60
*1161 FILLER_16_64
*1162 FILLER_16_70
*1163 FILLER_16_72
*1164 FILLER_16_76
*1165 FILLER_16_82
*1166 FILLER_16_90
*1167 FILLER_16_100
*1168 FILLER_16_111
*1169 FILLER_16_115
*1170 FILLER_16_119
*1171 FILLER_16_121
*1172 FILLER_17_5
*1173 FILLER_17_15
*1174 FILLER_17_28
*1175 FILLER_17_53
*1176 FILLER_17_91
*1177 FILLER_17_100
*1178 FILLER_17_106
*1179 FILLER_17_113
*1180 FILLER_17_121
*1181 FILLER_17_128
*1182 FILLER_17_137
*1183 FILLER_17_139
*1184 FILLER_17_143
*1185 FILLER_17_147
*1186 FILLER_18_2
*1187 FILLER_18_4
*1188 FILLER_18_8
*1189 FILLER_18_18
*1190 FILLER_18_20
*1191 FILLER_18_27
*1192 FILLER_18_37
*1193 FILLER_18_43
*1194 FILLER_18_60
*1195 FILLER_18_75
*1196 FILLER_18_77
*1197 FILLER_18_83
*1198 FILLER_18_101
*1199 FILLER_18_111
*1200 FILLER_18_125
*1201 FILLER_18_139
*1202 FILLER_19_2
*1203 FILLER_19_16
*1204 FILLER_19_24
*1205 FILLER_19_32
*1206 FILLER_19_46
*1207 FILLER_19_48
*1208 FILLER_19_71
*1209 FILLER_19_89
*1210 FILLER_19_99
*1211 FILLER_19_126
*1212 FILLER_19_139
*1213 FILLER_20_5
*1214 FILLER_20_15
*1215 FILLER_20_38
*1216 FILLER_20_48
*1217 FILLER_20_63
*1218 FILLER_20_74
*1219 FILLER_20_76
*1220 FILLER_20_81
*1221 FILLER_20_99
*1222 FILLER_20_109
*1223 FILLER_20_111
*1224 FILLER_21_2
*1225 FILLER_21_12
*1226 FILLER_21_22
*1227 FILLER_21_29
*1228 FILLER_21_35
*1229 FILLER_21_48
*1230 FILLER_21_50
*1231 FILLER_21_60
*1232 FILLER_21_66
*1233 FILLER_21_80
*1234 FILLER_21_90
*1235 FILLER_21_92
*1236 FILLER_21_123
*1237 FILLER_22_2
*1238 FILLER_22_12
*1239 FILLER_22_47
*1240 FILLER_22_62
*1241 FILLER_22_77
*1242 FILLER_22_87
*1243 FILLER_22_131
*1244 FILLER_22_145
*1245 FILLER_22_147
*1246 FILLER_23_5
*1247 FILLER_23_27
*1248 FILLER_23_40
*1249 FILLER_23_54
*1250 FILLER_23_96
*1251 FILLER_23_126
*1252 FILLER_23_136
*1253 FILLER_23_146
*1254 FILLER_24_8
*1255 FILLER_24_44
*1256 FILLER_24_48
*1257 FILLER_24_60
*1258 FILLER_24_66
*1259 FILLER_24_71
*1260 FILLER_24_73
*1261 FILLER_24_94
*1262 FILLER_24_116
*1263 FILLER_24_146
*1264 FILLER_25_5
*1265 FILLER_25_27
*1266 FILLER_25_31
*1267 FILLER_25_35
*1268 FILLER_25_45
*1269 FILLER_25_56
*1270 FILLER_25_60
*1271 FILLER_25_71
*1272 FILLER_25_79
*1273 FILLER_25_88
*1274 FILLER_25_102
*1275 FILLER_25_107
*1276 FILLER_25_109
*1277 FILLER_25_120
*1278 FILLER_25_134
*1279 FILLER_25_139
*1280 FILLER_25_145
*1281 FILLER_25_147
*1282 FILLER_26_2
*1283 FILLER_26_16
*1284 FILLER_26_18
*1285 FILLER_26_48
*1286 FILLER_26_70
*1287 FILLER_26_78
*1288 FILLER_26_125
*1289 FILLER_26_147
*1290 FILLER_27_2
*1291 FILLER_27_24
*1292 FILLER_27_30
*1293 FILLER_27_32
*1294 FILLER_27_36
*1295 FILLER_27_51
*1296 FILLER_27_66
*1297 FILLER_27_80
*1298 FILLER_27_82
*1299 FILLER_27_112
*1300 FILLER_27_114
*1301 FILLER_27_118
*1302 FILLER_27_140
*1303 FILLER_27_146
*1304 FILLER_28_2
*1305 FILLER_28_6
*1306 FILLER_28_16
*1307 FILLER_28_22
*1308 FILLER_28_30
*1309 FILLER_28_44
*1310 FILLER_28_51
*1311 FILLER_28_59
*1312 FILLER_28_78
*1313 FILLER_28_92
*1314 FILLER_28_96
*1315 FILLER_28_100
*1316 FILLER_28_106
*1317 FILLER_28_108
*1318 FILLER_28_119
*1319 FILLER_28_141
*1320 FILLER_28_147

*PORTS
clk I
debug_reg_addr[0] I
debug_reg_addr[1] I
debug_reg_addr[2] I
debug_reg_addr[3] I
debug_reg_data[0] O
debug_reg_data[10] O
debug_reg_data[11] O
debug_reg_data[12] O
debug_reg_data[13] O
debug_reg_data[14] O
debug_reg_data[15] O
debug_reg_data[16] O
debug_reg_data[17] O
debug_reg_data[18] O
debug_reg_data[19] O
debug_reg_data[1] O
debug_reg_data[20] O
debug_reg_data[21] O
debug_reg_data[22] O
debug_reg_data[23] O
debug_reg_data[24] O
debug_reg_data[25] O
debug_reg_data[26] O
debug_reg_data[27] O
debug_reg_data[28] O
debug_reg_data[29] O
debug_reg_data[2] O
debug_reg_data[30] O
debug_reg_data[31] O
debug_reg_data[32] O
debug_reg_data[33] O
debug_reg_data[34] O
debug_reg_data[35] O
debug_reg_data[36] O
debug_reg_data[37] O
debug_reg_data[38] O
debug_reg_data[39] O
debug_reg_data[3] O
debug_reg_data[40] O
debug_reg_data[41] O
debug_reg_data[42] O
debug_reg_data[43] O
debug_reg_data[44] O
debug_reg_data[45] O
debug_reg_data[46] O
debug_reg_data[47] O
debug_reg_data[48] O
debug_reg_data[49] O
debug_reg_data[4] O
debug_reg_data[50] O
debug_reg_data[51] O
debug_reg_data[52] O
debug_reg_data[53] O
debug_reg_data[5] O
debug_reg_data[6] O
debug_reg_data[7] O
debug_reg_data[8] O
debug_reg_data[9] O
halted O
ipc_out[0] O
ipc_out[1] O
pc_out[0] O
pc_out[10] O
pc_out[11] O
pc_out[12] O
pc_out[13] O
pc_out[14] O
pc_out[15] O
pc_out[1] O
pc_out[2] O
pc_out[3] O
pc_out[4] O
pc_out[5] O
pc_out[6] O
pc_out[7] O
pc_out[8] O
pc_out[9] O
prog_addr[0] I
prog_addr[1] I
prog_addr[2] I
prog_addr[3] I
prog_addr[4] I
prog_addr[5] I
prog_addr[6] I
prog_addr[7] I
prog_data[0] I
prog_data[10] I
prog_data[11] I
prog_data[12] I
prog_data[13] I
prog_data[14] I
prog_data[15] I
prog_data[16] I
prog_data[17] I
prog_data[1] I
prog_data[2] I
prog_data[3] I
prog_data[4] I
prog_data[5] I
prog_data[6] I
prog_data[7] I
prog_data[8] I
prog_data[9] I
prog_mode I
prog_we I
rst_n I
valid_out_a O
valid_out_b O

*D_NET *1 6.00572e-05
*CONN
*I *506:A I *D INVx1_ASAP7_75t_R
*I *798:QN O *D DFFASRHQNx1_ASAP7_75t_R
*CAP
1 *506:A 2.45797e-05
2 *798:QN 5.44892e-06
3 *1:8 3.00286e-05
4 *506:A *382:10 0
5 *1:8 *383:158 0
*RES
1 *798:QN *1:8 37.779 
2 *1:8 *506:A 45.6313 
*END

*D_NET *2 4.9286e-05
*CONN
*I *507:A I *D INVx1_ASAP7_75t_R
*I *780:QN O *D DFFASRHQNx1_ASAP7_75t_R
*CAP
1 *507:A 0
2 *780:QN 1.87843e-05
3 *2:10 1.87843e-05
4 *2:10 *798:RESETN 0
5 *2:10 *364:10 4.41094e-06
6 *2:10 *383:136 3.95007e-06
7 *2:10 *500:77 3.3563e-06
*RES
1 *780:QN *2:10 47.831 
2 *2:10 *507:A 34.4 
*END

*D_NET *3 2.3168e-05
*CONN
*I *961:A I *D BUFx3_ASAP7_75t_R
*I *736:A I *D BUFx3_ASAP7_75t_R
*I *781:QN O *D DFFASRHQNx1_ASAP7_75t_R
*CAP
1 *961:A 0
2 *736:A 4.21418e-06
3 *781:QN 0
4 *3:19 7.3698e-06
5 *3:4 1.1584e-05
6 *3:19 *410:8 0
7 *3:19 *500:10 0
*RES
1 *781:QN *3:4 17.2 
2 *3:4 *736:A 19.3393 
3 *3:4 *3:19 40.0317 
4 *3:19 *961:A 17.2 
*END

*D_NET *4 1.58549e-05
*CONN
*I *512:A I *D INVx1_ASAP7_75t_R
*I *784:QN O *D DFFASRHQNx1_ASAP7_75t_R
*CAP
1 *512:A 7.92745e-06
2 *784:QN 7.92745e-06
*RES
1 *784:QN *512:A 38.1438 
*END

*D_NET *5 1.31878e-05
*CONN
*I *514:A I *D INVx1_ASAP7_75t_R
*I *786:QN O *D DFFASRHQNx1_ASAP7_75t_R
*CAP
1 *514:A 6.59392e-06
2 *786:QN 6.59392e-06
*RES
1 *786:QN *514:A 37.0741 
*END

*D_NET *6 9.2687e-05
*CONN
*I *516:A I *D INVx1_ASAP7_75t_R
*I *788:QN O *D DFFASRHQNx1_ASAP7_75t_R
*CAP
1 *516:A 2.09319e-05
2 *788:QN 2.19643e-05
3 *6:10 4.28962e-05
4 *516:A *715:A 2.55346e-06
5 *516:A *715:B 1.86049e-06
6 *516:A *770:A 2.48065e-06
7 *6:10 *383:158 0
*RES
1 *788:QN *6:10 47.1544 
2 *6:10 *516:A 42.4224 
*END

*D_NET *7 3.32063e-05
*CONN
*I *521:A I *D INVx1_ASAP7_75t_R
*I *793:QN O *D DFFASRHQNx1_ASAP7_75t_R
*CAP
1 *521:A 1.11584e-05
2 *793:QN 5.44472e-06
3 *7:8 1.66031e-05
4 *521:A *440:8 0
*RES
1 *793:QN *7:8 37.779 
2 *7:8 *521:A 38.1438 
*END

*D_NET *8 2.86227e-05
*CONN
*I *523:A I *D INVx1_ASAP7_75t_R
*I *795:QN O *D DFFASRHQNx1_ASAP7_75t_R
*CAP
1 *523:A 1.43113e-05
2 *795:QN 1.43113e-05
*RES
1 *795:QN *523:A 41.3527 
*END

*D_NET *9 5.50202e-05
*CONN
*I *525:A I *D INVx1_ASAP7_75t_R
*I *797:QN O *D DFFASRHQNx1_ASAP7_75t_R
*CAP
1 *525:A 0
2 *797:QN 2.75101e-05
3 *9:10 2.75101e-05
*RES
1 *797:QN *9:10 49.9703 
2 *9:10 *525:A 34.4 
*END

*D_NET *10 6.85767e-05
*CONN
*I *529:A3 I *D OA31x2_ASAP7_75t_R
*I *668:B I *D FAx1_ASAP7_75t_R
*I *505:Y O *D INVx1_ASAP7_75t_R
*CAP
1 *529:A3 0
2 *668:B 1.13788e-05
3 *505:Y 8.66427e-06
4 *10:18 7.99103e-06
5 *10:6 2.80341e-05
6 *10:6 *14:18 2.11853e-06
7 *10:18 *668:A 0
8 *10:18 *692:A 6.76305e-06
9 *10:18 *14:27 3.6269e-06
10 *10:18 *69:20 0
*RES
1 *505:Y *10:6 22.5483 
2 *10:6 *668:B 6.68531 
3 *10:6 *10:18 42.2843 
4 *10:18 *529:A3 17.2 
*END

*D_NET *11 0.000201895
*CONN
*I *580:A2 I *D OA21x2_ASAP7_75t_R
*I *692:B I *D HAxp5_ASAP7_75t_R
*I *668:CI I *D FAx1_ASAP7_75t_R
*I *502:Y O *D INVx1_ASAP7_75t_R
*CAP
1 *580:A2 3.72591e-06
2 *692:B 2.79551e-05
3 *668:CI 0
4 *502:Y 1.22856e-05
5 *11:18 2.18863e-05
6 *11:14 6.43022e-05
7 *11:10 3.04723e-05
8 *580:A2 *410:83 6.97416e-06
9 *580:A2 *413:53 8.33296e-06
10 *11:10 *580:A1 0
11 *11:10 *410:83 4.97654e-06
12 *11:10 *413:53 4.83862e-06
13 *11:10 *485:12 1.59615e-06
14 *11:14 *366:10 5.0551e-07
15 *11:18 *69:12 1.12894e-06
16 *11:18 *69:20 1.29144e-05
17 *11:18 *487:23 0
18 *11:18 *487:27 0
*RES
1 *502:Y *11:10 40.9029 
2 *11:10 *11:14 25.2224 
3 *11:14 *11:18 33.5318 
4 *11:18 *668:CI 17.2 
5 *11:14 *692:B 34.8492 
6 *11:10 *580:A2 38.8203 
*END

*D_NET *12 0.000101407
*CONN
*I *624:A I *D INVx1_ASAP7_75t_R
*I *626:A2 I *D AO21x1_ASAP7_75t_R
*I *668:CON O *D FAx1_ASAP7_75t_R
*CAP
1 *624:A 0
2 *626:A2 1.76256e-05
3 *668:CON 1.46083e-05
4 *12:9 3.22339e-05
5 *626:A2 *626:B 6.92634e-06
6 *626:A2 *76:14 1.23408e-05
7 *626:A2 *138:8 3.47607e-06
8 *626:A2 *375:10 0
9 *626:A2 *410:83 5.52807e-07
10 *12:9 *13:18 0
11 *12:9 *138:8 1.63669e-06
12 *12:9 *481:38 1.20066e-05
13 *12:9 *481:65 0
*RES
1 *668:CON *12:9 26.308 
2 *12:9 *626:A2 48.2808 
3 *12:9 *624:A 34.4 
*END

*D_NET *13 0.000147112
*CONN
*I *953:A I *D BUFx3_ASAP7_75t_R
*I *668:SN O *D FAx1_ASAP7_75t_R
*CAP
1 *953:A 0
2 *668:SN 4.63456e-06
3 *13:18 5.22273e-06
4 *13:12 5.53015e-05
5 *13:8 5.47133e-05
6 *13:8 *69:20 0
7 *13:8 *487:27 3.95845e-06
8 *13:12 *630:A2 4.20803e-06
9 *13:12 *187:8 0
10 *13:12 *375:8 5.85387e-06
11 *13:18 *481:65 2.19448e-07
12 *13:18 *482:25 1.30003e-05
13 *12:9 *13:18 0
*RES
1 *668:SN *13:8 37.779 
2 *13:8 *13:12 36.9885 
3 *13:12 *13:18 38.9053 
4 *13:18 *953:A 17.2 
*END

*D_NET *14 0.000190642
*CONN
*I *692:A I *D HAxp5_ASAP7_75t_R
*I *505:A I *D INVx1_ASAP7_75t_R
*I *548:C I *D AND3x1_ASAP7_75t_R
*I *695:CON O *D HAxp5_ASAP7_75t_R
*CAP
1 *692:A 1.40631e-05
2 *505:A 0
3 *548:C 0
4 *695:CON 5.32506e-06
5 *14:27 2.1245e-05
6 *14:18 2.2589e-05
7 *14:10 6.22072e-05
8 *14:8 3.77614e-05
9 *692:A *484:47 0
10 *14:10 *71:10 0
11 *14:10 *484:32 0
12 *14:10 *484:47 0
13 *14:18 *140:23 1.64764e-06
14 *14:18 *484:47 1.3295e-05
15 *14:27 *484:47 0
16 *10:6 *14:18 2.11853e-06
17 *10:18 *692:A 6.76305e-06
18 *10:18 *14:27 3.6269e-06
*RES
1 *695:CON *14:8 37.0741 
2 *14:8 *14:10 21.4003 
3 *14:10 *14:18 46.9277 
4 *14:18 *548:C 34.4 
5 *14:10 *14:27 6.19483 
6 *14:27 *505:A 34.4 
7 *14:27 *692:A 46.2265 
*END

*D_NET *15 0.000115145
*CONN
*I *503:C I *D OR3x1_ASAP7_75t_R
*I *502:A I *D INVx1_ASAP7_75t_R
*I *688:CON O *D HAxp5_ASAP7_75t_R
*CAP
1 *503:C 0
2 *502:A 0
3 *688:CON 2.62852e-05
4 *15:19 1.0609e-05
5 *15:6 3.68941e-05
6 *15:6 *485:12 3.65131e-06
7 *15:19 *481:38 3.04836e-05
8 *15:19 *485:12 1.44167e-06
9 *15:19 *485:18 4.97342e-06
10 *15:19 *488:10 8.06799e-07
*RES
1 *688:CON *15:6 28.4313 
2 *15:6 *502:A 17.2 
3 *15:6 *15:19 46.1415 
4 *15:19 *503:C 17.2 
*END

*D_NET *16 6.59163e-05
*CONN
*I *669:CI I *D FAx1_ASAP7_75t_R
*I *504:Y O *D INVx1_ASAP7_75t_R
*CAP
1 *669:CI 0
2 *504:Y 2.65028e-05
3 *16:10 2.65028e-05
4 *16:10 *17:10 1.09067e-06
5 *16:10 *488:99 1.182e-05
*RES
1 *504:Y *16:10 48.5038 
2 *16:10 *669:CI 17.2 
*END

*D_NET *17 3.87383e-05
*CONN
*I *949:A I *D BUFx3_ASAP7_75t_R
*I *669:CON O *D FAx1_ASAP7_75t_R
*CAP
1 *949:A 0
2 *669:CON 1.4465e-05
3 *17:10 1.4465e-05
4 *17:10 *18:10 0
5 *17:10 *256:8 8.71771e-06
6 *17:10 *488:99 0
7 *17:10 *488:114 0
8 *16:10 *17:10 1.09067e-06
*RES
1 *669:CON *17:10 45.0151 
2 *17:10 *949:A 17.2 
*END

*D_NET *18 5.59122e-05
*CONN
*I *631:A I *D INVx1_ASAP7_75t_R
*I *669:SN O *D FAx1_ASAP7_75t_R
*CAP
1 *631:A 1.42599e-05
2 *669:SN 1.36962e-05
3 *18:10 2.79561e-05
4 *631:A *478:10 0
5 *631:A *478:32 0
6 *17:10 *18:10 0
*RES
1 *669:SN *18:10 41.5228 
2 *18:10 *631:A 40.2831 
*END

*D_NET *19 1.44345e-05
*CONN
*I *670:B I *D FAx1_ASAP7_75t_R
*I *573:Y O *D INVx1_ASAP7_75t_R
*CAP
1 *670:B 0
2 *573:Y 6.10358e-06
3 *19:8 6.10358e-06
4 *19:8 *21:10 2.22736e-06
5 *19:8 *413:18 0
*RES
1 *573:Y *19:8 40.0317 