*SPEF "ieee 1481-1999"
*DESIGN "ternary_cpu_system"
*DATE "21:47:21 Sunday December 28, 2025"
*VENDOR "The OpenROAD Project"
*PROGRAM "OpenROAD"
*VERSION "24Q3-11673-g154f14ab7e"
*DESIGN_FLOW "NAME_SCOPE LOCAL" "PIN_CAP NONE"
*DIVIDER /
*DELIMITER :
*BUS_DELIMITER []
*T_UNIT 1 NS
*C_UNIT 1 PF
*R_UNIT 1 OHM
*L_UNIT 1 HENRY

*NAME_MAP
*1 _000_
*2 _001_
*3 _002_
*4 _003_
*5 _004_
*6 _005_
*7 _006_
*8 _007_
*9 _008_
*10 _009_
*11 _010_
*12 _011_
*13 _012_
*14 _013_
*15 _014_
*16 _015_
*17 _016_
*18 _017_
*19 _018_
*20 _019_
*21 _020_
*22 _021_
*23 _022_
*24 _023_
*25 _024_
*26 _025_
*27 _026_
*28 _027_
*29 _028_
*30 _029_
*31 _030_
*32 _031_
*33 _032_
*34 _033_
*35 _034_
*36 _035_
*37 _036_
*38 _037_
*39 _038_
*40 _039_
*41 _040_
*42 _041_
*43 _042_
*44 _043_
*45 _044_
*46 _045_
*47 _046_
*48 _047_
*49 _048_
*50 _049_
*51 _050_
*52 _051_
*53 _052_
*54 _053_
*55 _054_
*56 _055_
*57 _056_
*58 _057_
*59 _058_
*60 _059_
*61 _060_
*62 _061_
*63 _062_
*64 _063_
*65 _064_
*66 _065_
*67 _066_
*68 _067_
*69 _068_
*70 _069_
*71 _070_
*72 _071_
*73 _072_
*74 _073_
*75 _074_
*76 _075_
*77 _076_
*78 _077_
*79 _078_
*80 _079_
*81 _080_
*82 _081_
*83 _082_
*84 _083_
*85 _084_
*86 _085_
*87 _086_
*88 _087_
*89 _088_
*90 _089_
*91 _090_
*92 _091_
*93 _092_
*94 _093_
*95 _094_
*96 _095_
*97 _096_
*98 _097_
*99 _098_
*100 _099_
*101 _100_
*102 _101_
*103 _102_
*104 _103_
*105 _104_
*106 _105_
*107 _106_
*108 _107_
*109 _108_
*110 _109_
*111 _110_
*112 _111_
*113 _112_
*114 _113_
*115 _114_
*116 _115_
*117 _116_
*118 _117_
*119 _118_
*120 _119_
*121 _120_
*122 _121_
*123 _122_
*124 _123_
*125 _124_
*126 _125_
*127 _126_
*128 _127_
*129 _128_
*130 _129_
*131 _130_
*132 _131_
*133 _132_
*134 _133_
*135 _134_
*136 _135_
*137 _136_
*138 _137_
*139 net537
*140 _139_
*141 _140_
*142 _141_
*143 _142_
*144 _143_
*145 _144_
*146 _145_
*147 _146_
*149 net633
*150 _149_
*151 _150_
*152 _151_
*153 _152_
*154 _153_
*155 _154_
*156 _155_
*157 _156_
*158 _157_
*159 _158_
*160 _159_
*161 _160_
*162 _161_
*163 _162_
*164 _163_
*165 _164_
*166 _165_
*167 _166_
*168 _167_
*169 _168_
*170 _169_
*171 _170_
*172 _171_
*173 _172_
*174 _173_
*175 _174_
*176 _175_
*177 _176_
*178 _177_
*179 _178_
*180 _179_
*181 _180_
*182 _181_
*183 _182_
*184 _183_
*185 _184_
*186 _185_
*187 _186_
*188 _187_
*189 _188_
*190 _189_
*191 _190_
*192 _191_
*193 _192_
*194 _193_
*195 _194_
*196 _195_
*197 _196_
*198 _197_
*199 _198_
*200 _199_
*201 _200_
*202 _201_
*203 _202_
*204 _203_
*205 _204_
*206 _205_
*207 _206_
*208 _207_
*209 _208_
*210 _209_
*211 _210_
*212 _211_
*213 _212_
*214 _213_
*215 _214_
*216 _215_
*217 _216_
*218 _217_
*219 _218_
*220 _219_
*221 _220_
*222 _221_
*223 _222_
*224 _223_
*225 _224_
*226 _225_
*227 _226_
*228 _227_
*229 _228_
*230 _229_
*231 _230_
*232 _231_
*233 _232_
*234 _233_
*235 _234_
*236 _235_
*237 _236_
*238 _237_
*239 _238_
*240 _239_
*241 _240_
*242 _241_
*243 _242_
*244 _243_
*245 _244_
*246 _245_
*247 _246_
*248 _247_
*249 _248_
*250 _249_
*251 _250_
*252 _251_
*253 _252_
*254 _253_
*256 net68
*257 clk
*258 debug_reg_addr[0]
*259 debug_reg_addr[1]
*260 debug_reg_addr[2]
*261 debug_reg_addr[3]
*262 debug_reg_data[0]
*263 debug_reg_data[10]
*264 debug_reg_data[11]
*265 debug_reg_data[12]
*266 debug_reg_data[13]
*267 debug_reg_data[14]
*268 debug_reg_data[15]
*269 debug_reg_data[16]
*270 debug_reg_data[17]
*271 debug_reg_data[18]
*272 debug_reg_data[19]
*273 debug_reg_data[1]
*274 debug_reg_data[20]
*275 debug_reg_data[21]
*276 debug_reg_data[22]
*277 debug_reg_data[23]
*278 debug_reg_data[24]
*279 debug_reg_data[25]
*280 debug_reg_data[26]
*281 debug_reg_data[27]
*282 debug_reg_data[28]
*283 debug_reg_data[29]
*284 debug_reg_data[2]
*285 debug_reg_data[30]
*286 debug_reg_data[31]
*287 debug_reg_data[32]
*288 debug_reg_data[33]
*289 debug_reg_data[34]
*290 debug_reg_data[35]
*291 debug_reg_data[36]
*292 debug_reg_data[37]
*293 debug_reg_data[38]
*294 debug_reg_data[39]
*295 debug_reg_data[3]
*296 debug_reg_data[40]
*297 debug_reg_data[41]
*298 debug_reg_data[42]
*299 debug_reg_data[43]
*300 debug_reg_data[44]
*301 debug_reg_data[45]
*302 debug_reg_data[46]
*303 debug_reg_data[47]
*304 debug_reg_data[48]
*305 debug_reg_data[49]
*306 debug_reg_data[4]
*307 debug_reg_data[50]
*308 debug_reg_data[51]
*309 debug_reg_data[52]
*310 debug_reg_data[53]
*311 debug_reg_data[5]
*312 debug_reg_data[6]
*313 debug_reg_data[7]
*314 debug_reg_data[8]
*315 debug_reg_data[9]
*316 halted
*317 ipc_out[0]
*318 net95
*319 net96
*320 net97
*321 net98
*322 net99
*323 net100
*324 net101
*325 net102
*326 net103
*327 net104
*328 net105
*329 net106
*330 net107
*331 net108
*332 net109
*333 net110
*334 net111
*335 prog_addr[0]
*336 prog_addr[1]
*337 prog_addr[2]
*338 prog_addr[3]
*339 prog_addr[4]
*340 prog_addr[5]
*341 prog_addr[6]
*342 prog_addr[7]
*343 prog_data[0]
*344 prog_data[10]
*345 prog_data[11]
*346 prog_data[12]
*347 prog_data[13]
*348 prog_data[14]
*349 prog_data[15]
*350 prog_data[16]
*351 prog_data[17]
*352 prog_data[1]
*353 prog_data[2]
*354 prog_data[3]
*355 prog_data[4]
*356 prog_data[5]
*357 prog_data[6]
*358 prog_data[7]
*359 prog_data[8]
*360 prog_data[9]
*361 prog_mode
*362 prog_we
*363 rst_n
*364 u_cpu\.ex_wb_reg_write_a
*365 net94
*366 u_cpu\.next_pc\[0\]
*367 u_cpu\.next_pc\[10\]
*368 u_cpu\.next_pc\[11\]
*369 u_cpu\.next_pc\[12\]
*370 u_cpu\.next_pc\[13\]
*371 u_cpu\.next_pc\[14\]
*372 u_cpu\.next_pc\[15\]
*373 u_cpu\.next_pc\[1\]
*374 u_cpu\.next_pc\[2\]
*375 u_cpu\.next_pc\[3\]
*376 u_cpu\.next_pc\[4\]
*377 u_cpu\.next_pc\[5\]
*378 u_cpu\.next_pc\[6\]
*379 u_cpu\.next_pc\[7\]
*380 u_cpu\.next_pc\[8\]
*381 u_cpu\.next_pc\[9\]
*382 net112
*383 net604
*384 net
*385 net1
*386 net2
*387 net3
*388 net4
*389 net5
*390 net6
*391 net7
*392 net8
*393 net9
*394 net10
*395 net11
*396 net629
*397 net535
*398 net631
*399 net630
*404 net536
*407 net534
*409 net639
*410 net638
*411 net637
*412 net636
*413 net635
*414 net532
*424 net533
*429 net531
*433 valid_out_b
*434 valid_out_a
*435 pc_out[9]
*436 pc_out[8]
*437 pc_out[7]
*438 pc_out[6]
*439 pc_out[5]
*440 pc_out[4]
*441 pc_out[3]
*442 pc_out[2]
*443 pc_out[1]
*444 pc_out[15]
*445 pc_out[14]
*446 pc_out[13]
*447 pc_out[12]
*448 pc_out[11]
*449 pc_out[10]
*450 pc_out[0]
*451 ipc_out[1]
*452 net69
*453 net70
*454 net71
*455 net72
*456 net73
*457 net74
*458 net75
*459 net76
*460 net77
*461 net78
*462 net79
*463 net80
*464 net81
*465 net82
*466 net83
*467 net84
*468 net85
*469 net86
*470 net87
*471 net88
*472 net89
*473 net90
*474 net91
*475 net92
*476 net93
*481 net440
*488 net538
*495 net539
*506 net540
*512 net541
*518 net542
*522 net543
*527 net546
*531 net622
*532 net544
*533 net623
*534 net624
*535 net625
*536 net627
*537 net545
*538 clknet_1_0__leaf_clk
*539 clknet_1_1__leaf_clk
*540 net616
*541 net617
*542 net618
*543 net620
*544 net547
*545 net548
*549 net549
*552 net550
*553 net551
*557 net552
*559 net553
*566 net554
*568 net555
*572 net556
*576 net458
*583 net259
*584 net260
*585 net261
*586 net262
*587 net263
*588 net264
*589 net265
*598 net557
*599 net558
*603 net559
*607 clknet_0_clk
*608 net563
*609 net560
*610 net564
*614 net290
*615 net291
*616 net292
*617 net293
*618 net294
*619 net295
*620 net296
*621 net562
*622 net561
*623 net565
*627 net566
*631 net567
*635 net568
*637 net569
*639 net571
*641 net570
*643 net572
*645 net573
*655 net574
*660 net336
*661 net337
*662 net575
*667 net576
*669 net577
*671 net578
*672 net579
*673 net580
*674 net582
*675 net587
*676 net586
*678 net583
*679 net584
*680 net585
*682 net588
*684 net589
*686 net590
*689 net591
*692 net592
*694 net593
*698 net594
*700 net595
*703 net596
*706 net597
*710 net598
*716 net599
*718 net600
*722 net601
*723 net602
*724 net613
*726 net603
*727 net612
*728 net610
*729 net609
*734 net608
*735 net607
*736 net605
*737 net606
*740 net614
*741 net619
*742 net628
*743 net611
*744 net632
*745 net626
*746 net634
*747 net525
*748 net524
*749 net621
*750 net581
*751 net615
*753 net529
*758 net530
*759 _256_
*760 _257_
*761 _258_
*762 _259_
*763 _260_
*764 _261_
*765 place538
*766 _263_
*767 _264_
*768 _265_
*769 _266_
*770 _267_
*771 _268_
*772 _269_
*773 _270_
*774 _271_
*775 _272_
*776 _273_
*777 _274_
*778 _275_
*779 _276_
*780 _277_
*781 _278_
*782 _279_
*783 _280_
*784 _281_
*785 _282_
*786 _283_
*787 _284_
*788 _285_
*789 _286_
*790 _287_
*791 _288_
*792 _289_
*793 _290_
*794 _291_
*795 _292_
*796 _293_
*797 _294_
*798 _295_
*799 _296_
*800 _297_
*801 _298_
*802 _299_
*803 _300_
*804 _301_
*805 _302_
*806 _303_
*807 _304_
*808 _305_
*809 _306_
*810 _307_
*811 _308_
*812 _309_
*813 _310_
*814 _311_
*815 _312_
*816 _313_
*817 _314_
*818 _315_
*819 _316_
*820 _317_
*821 _318_
*822 _319_
*823 _320_
*824 _321_
*825 _322_
*826 _323_
*827 _324_
*828 _325_
*829 _326_
*830 _327_
*831 _328_
*832 _329_
*833 _330_
*834 FILLER_12_123
*835 wire633
*836 _333_
*837 _334_
*838 _335_
*839 _336_
*840 _337_
*841 _338_
*842 _339_
*843 _340_
*844 _341_
*845 _342_
*846 _343_
*847 _344_
*848 _345_
*849 _346_
*850 _347_
*851 _348_
*852 _349_
*853 _350_
*854 _351_
*855 _352_
*856 _353_
*857 _354_
*858 _355_
*859 _356_
*860 _357_
*861 _358_
*862 _359_
*863 _360_
*864 _361_
*865 _362_
*866 _363_
*867 _364_
*868 _365_
*869 _366_
*870 _367_
*871 _368_
*872 _369_
*873 _370_
*874 _371_
*875 _372_
*876 _373_
*877 _374_
*878 _375_
*879 _376_
*880 _377_
*881 _378_
*882 _379_
*883 _380_
*884 _381_
*885 _382_
*886 _383_
*887 _384_
*888 _385_
*889 _386_
*890 _387_
*891 _388_
*892 _389_
*893 _390_
*894 _391_
*895 _392_
*896 _393_
*897 _394_
*898 _395_
*899 _396_
*900 _397_
*901 _398_
*902 _399_
*903 _400_
*904 _401_
*905 _402_
*906 _403_
*907 _404_
*908 _405_
*909 _406_
*910 _407_
*911 _408_
*912 _409_
*913 _410_
*914 _411_
*915 _412_
*916 _413_
*917 _414_
*918 _415_
*919 _416_
*920 _417_
*921 _418_
*922 _419_
*923 _420_
*924 _421_
*925 _422_
*926 _423_
*927 _424_
*928 _425_
*929 _426_
*930 _427_
*931 _428_
*932 _429_
*933 _430_
*934 _431_
*935 _432_
*936 _433_
*937 _434_
*938 _435_
*939 _436_
*940 _437_
*941 _438_
*942 _439_
*943 _440_
*944 _441_
*945 _442_
*946 _443_
*947 _444_
*948 _445_
*949 _446_
*950 _447_
*951 _448_
*952 _449_
*953 _450_
*954 _451_
*955 _452_
*956 _453_
*957 _454_
*958 _455_
*959 _456_
*960 _457_
*961 _458_
*962 _459_
*963 _460_
*964 _461_
*965 _462_
*966 _463_
*967 _464_
*968 _465_
*969 _466_
*970 _467_
*971 _468_
*972 _469_
*973 _470_
*974 _471_
*975 _472_
*976 _473_
*977 PHY_EDGE_ROW_0_Right_0
*978 _423__69
*979 wire629
*980 place536
*981 wire631
*982 wire630
*983 FILLER_13_6
*984 FILLER_13_2
*985 FILLER_12_147
*986 FILLER_12_145
*987 place537
*988 FILLER_13_28
*989 FILLER_13_11
*990 place535
*991 FILLER_0_2
*992 wire639
*993 wire638
*994 wire637
*995 wire636
*996 wire635
*997 place533
*998 FILLER_13_146
*999 FILLER_13_110
*1000 FILLER_13_108
*1001 FILLER_13_96
*1002 FILLER_13_94
*1003 FILLER_13_83
*1004 FILLER_13_72
*1005 FILLER_13_70
*1006 FILLER_13_30
*1007 place534
*1008 FILLER_13_57
*1009 FILLER_14_90
*1010 FILLER_14_86
*1011 FILLER_14_2
*1012 place532
*1013 FILLER_14_84
*1014 FILLER_14_46
*1015 FILLER_14_9
*1016 output114
*1017 output113
*1018 output112
*1019 output111
*1020 output110
*1021 output109
*1022 output108
*1023 output107
*1024 output106
*1025 output105
*1026 output104
*1027 output103
*1028 output102
*1029 output101
*1030 output100
*1031 output99
*1032 output98
*1033 output97
*1034 output96
*1035 input95
*1036 place605
*1037 u_cpu\.id_ex_valid_a\$_DFF_PN0_
*1038 u_cpu\.if_id_valid_b\$_DFF_PN0_
*1039 u_cpu\.imem_addr\[0\]\$_DFF_PN0_
*1040 u_cpu\.imem_addr\[10\]\$_DFF_PN0_
*1041 u_cpu\.imem_addr\[11\]\$_DFF_PN0_
*1042 u_cpu\.imem_addr\[12\]\$_DFF_PN0_
*1043 u_cpu\.imem_addr\[13\]\$_DFF_PN0_
*1044 u_cpu\.imem_addr\[14\]\$_DFF_PN0_
*1045 u_cpu\.imem_addr\[15\]\$_DFF_PN0_
*1046 u_cpu\.imem_addr\[1\]\$_DFF_PN0_
*1047 u_cpu\.imem_addr\[2\]\$_DFF_PN0_
*1048 u_cpu\.imem_addr\[3\]\$_DFF_PN0_
*1049 u_cpu\.imem_addr\[4\]\$_DFF_PN0_
*1050 u_cpu\.imem_addr\[5\]\$_DFF_PN0_
*1051 u_cpu\.imem_addr\[6\]\$_DFF_PN0_
*1052 u_cpu\.imem_addr\[7\]\$_DFF_PN0_
*1053 u_cpu\.imem_addr\[8\]\$_DFF_PN0_
*1054 u_cpu\.imem_addr\[9\]\$_DFF_PN0_
*1055 u_cpu\.valid_out_a\$_DFF_PN0_
*1056 _423__1
*1057 _424__2
*1058 _429__3
*1059 _430__4
*1060 _431__5
*1061 _432__6
*1062 _433__7
*1063 _434__8
*1064 _435__9
*1065 _436__10
*1066 _437__11
*1067 _438__12
*1068 _476__13
*1069 _477__14
*1070 _478__15
*1071 _479__16
*1072 _480__17
*1073 _481__18
*1074 _482__19
*1075 _483__20
*1076 _484__21
*1077 _485__22
*1078 _486__23
*1079 _487__24
*1080 _488__25
*1081 _489__26
*1082 _490__27
*1083 _491__28
*1084 _492__29
*1085 _493__30
*1086 _494__31
*1087 _495__32
*1088 _496__33
*1089 _497__34
*1090 _498__35
*1091 _499__36
*1092 _500__37
*1093 _501__38
*1094 _502__39
*1095 _503__40
*1096 _504__41
*1097 _505__42
*1098 _506__43
*1099 _507__44
*1100 _508__45
*1101 _509__46
*1102 _510__47
*1103 _511__48
*1104 _512__49
*1105 _513__50
*1106 _514__51
*1107 _515__52
*1108 _516__53
*1109 _517__54
*1110 _518__55
*1111 _519__56
*1112 _520__57
*1113 _521__58
*1114 _522__59
*1115 _523__60
*1116 _524__61
*1117 _525__62
*1118 _526__63
*1119 _527__64
*1120 _528__65
*1121 _529__66
*1122 _530__67
*1123 _531__68
*1124 _424__70
*1125 _425__71
*1126 _426__72
*1127 _427__73
*1128 _428__74
*1129 u_cpu\.id_ex_valid_a\$_DFF_PN0__75
*1130 u_cpu\.if_id_valid_b\$_DFF_PN0__76
*1131 u_cpu\.if_id_valid_b\$_DFF_PN0__77
*1132 u_cpu\.imem_addr\[0\]\$_DFF_PN0__78
*1133 u_cpu\.imem_addr\[10\]\$_DFF_PN0__79
*1134 u_cpu\.imem_addr\[11\]\$_DFF_PN0__80
*1135 u_cpu\.imem_addr\[12\]\$_DFF_PN0__81
*1136 u_cpu\.imem_addr\[13\]\$_DFF_PN0__82
*1137 u_cpu\.imem_addr\[14\]\$_DFF_PN0__83
*1138 u_cpu\.imem_addr\[15\]\$_DFF_PN0__84
*1139 u_cpu\.imem_addr\[1\]\$_DFF_PN0__85
*1140 u_cpu\.imem_addr\[2\]\$_DFF_PN0__86
*1141 u_cpu\.imem_addr\[3\]\$_DFF_PN0__87
*1142 u_cpu\.imem_addr\[4\]\$_DFF_PN0__88
*1143 u_cpu\.imem_addr\[5\]\$_DFF_PN0__89
*1144 u_cpu\.imem_addr\[6\]\$_DFF_PN0__90
*1145 u_cpu\.imem_addr\[7\]\$_DFF_PN0__91
*1146 u_cpu\.imem_addr\[8\]\$_DFF_PN0__92
*1147 u_cpu\.imem_addr\[9\]\$_DFF_PN0__93
*1148 u_cpu\.valid_out_a\$_DFF_PN0__94
*1149 PHY_EDGE_ROW_1_Right_1
*1150 PHY_EDGE_ROW_2_Right_2
*1151 PHY_EDGE_ROW_3_Right_3
*1152 PHY_EDGE_ROW_4_Right_4
*1153 PHY_EDGE_ROW_5_Right_5
*1154 PHY_EDGE_ROW_6_Right_6
*1155 PHY_EDGE_ROW_7_Right_7
*1156 PHY_EDGE_ROW_8_Right_8
*1157 PHY_EDGE_ROW_9_Right_9
*1158 PHY_EDGE_ROW_10_Right_10
*1159 PHY_EDGE_ROW_11_Right_11
*1160 PHY_EDGE_ROW_12_Right_12
*1161 PHY_EDGE_ROW_13_Right_13
*1162 PHY_EDGE_ROW_14_Right_14
*1163 PHY_EDGE_ROW_15_Right_15
*1164 PHY_EDGE_ROW_16_Right_16
*1165 PHY_EDGE_ROW_17_Right_17
*1166 PHY_EDGE_ROW_18_Right_18
*1167 PHY_EDGE_ROW_19_Right_19
*1168 PHY_EDGE_ROW_20_Right_20
*1169 PHY_EDGE_ROW_21_Right_21
*1170 PHY_EDGE_ROW_22_Right_22
*1171 PHY_EDGE_ROW_23_Right_23
*1172 PHY_EDGE_ROW_24_Right_24
*1173 PHY_EDGE_ROW_25_Right_25
*1174 PHY_EDGE_ROW_26_Right_26
*1175 PHY_EDGE_ROW_27_Right_27
*1176 PHY_EDGE_ROW_28_Right_28
*1177 PHY_EDGE_ROW_0_Left_29
*1178 PHY_EDGE_ROW_1_Left_30
*1179 PHY_EDGE_ROW_2_Left_31
*1180 PHY_EDGE_ROW_3_Left_32
*1181 PHY_EDGE_ROW_4_Left_33
*1182 PHY_EDGE_ROW_5_Left_34
*1183 PHY_EDGE_ROW_6_Left_35
*1184 PHY_EDGE_ROW_7_Left_36
*1185 PHY_EDGE_ROW_8_Left_37
*1186 PHY_EDGE_ROW_9_Left_38
*1187 PHY_EDGE_ROW_10_Left_39
*1188 PHY_EDGE_ROW_11_Left_40
*1189 PHY_EDGE_ROW_12_Left_41
*1190 PHY_EDGE_ROW_13_Left_42
*1191 PHY_EDGE_ROW_14_Left_43
*1192 PHY_EDGE_ROW_15_Left_44
*1193 PHY_EDGE_ROW_16_Left_45
*1194 PHY_EDGE_ROW_17_Left_46
*1195 PHY_EDGE_ROW_18_Left_47
*1196 PHY_EDGE_ROW_19_Left_48
*1197 PHY_EDGE_ROW_20_Left_49
*1198 PHY_EDGE_ROW_21_Left_50
*1199 PHY_EDGE_ROW_22_Left_51
*1200 PHY_EDGE_ROW_23_Left_52
*1201 PHY_EDGE_ROW_24_Left_53
*1202 PHY_EDGE_ROW_25_Left_54
*1203 PHY_EDGE_ROW_26_Left_55
*1204 PHY_EDGE_ROW_27_Left_56
*1205 PHY_EDGE_ROW_28_Left_57
*1206 FILLER_12_113
*1207 FILLER_12_125
*1208 FILLER_12_56
*1209 place441
*1210 FILLER_12_22
*1211 FILLER_12_37
*1212 FILLER_12_29
*1213 FILLER_12_48
*1214 FILLER_12_54
*1215 FILLER_12_106
*1216 place539
*1217 FILLER_11_115
*1218 FILLER_11_133
*1219 FILLER_11_123
*1220 FILLER_12_7
*1221 FILLER_11_144
*1222 FILLER_12_11
*1223 place540
*1224 FILLER_11_30
*1225 FILLER_11_38
*1226 FILLER_11_56
*1227 FILLER_11_48
*1228 FILLER_11_103
*1229 FILLER_11_92
*1230 FILLER_11_109
*1231 FILLER_10_129
*1232 FILLER_10_135
*1233 FILLER_10_52
*1234 place541
*1235 FILLER_10_23
*1236 FILLER_10_87
*1237 FILLER_11_11
*1238 FILLER_11_5
*1239 FILLER_11_22
*1240 place542
*1241 FILLER_9_108
*1242 FILLER_10_5
*1243 FILLER_9_134
*1244 FILLER_10_16
*1245 FILLER_9_64
*1246 place543
*1247 FILLER_9_76
*1248 FILLER_9_91
*1249 FILLER_9_98
*1250 place544
*1251 FILLER_9_55
*1252 FILLER_9_53
*1253 FILLER_9_62
*1254 FILLER_9_4
*1255 place547
*1256 FILLER_9_8
*1257 FILLER_9_10
*1258 FILLER_9_20
*1259 wire622
*1260 place545
*1261 wire623
*1262 wire624
*1263 wire625
*1264 wire627
*1265 place546
*1266 clkbuf_1_0__f_clk
*1267 clkbuf_1_1__f_clk
*1268 clkload0
*1269 wire617
*1270 wire618
*1271 wire620
*1272 place548
*1273 place549
*1274 FILLER_8_147
*1275 FILLER_8_145
*1276 FILLER_9_2
*1277 place550
*1278 FILLER_8_128
*1279 FILLER_8_104
*1280 place551
*1281 place552
*1282 FILLER_8_100
*1283 FILLER_8_114
*1284 FILLER_8_67
*1285 place553
*1286 FILLER_8_92
*1287 place554
*1288 FILLER_8_14
*1289 FILLER_7_146
*1290 FILLER_8_2
*1291 FILLER_8_4
*1292 FILLER_8_41
*1293 FILLER_8_51
*1294 place555
*1295 FILLER_7_131
*1296 place556
*1297 FILLER_7_137
*1298 FILLER_7_99
*1299 FILLER_7_106
*1300 place557
*1301 FILLER_7_117
*1302 FILLER_7_110
*1303 FILLER_7_119
*1304 place459
*1305 FILLER_7_35
*1306 FILLER_7_45
*1307 FILLER_7_50
*1308 FILLER_7_62
*1309 FILLER_7_60
*1310 FILLER_7_66
*1311 wire260
*1312 max_cap261
*1313 wire262
*1314 max_cap263
*1315 wire264
*1316 max_cap265
*1317 wire266
*1318 FILLER_6_83
*1319 FILLER_6_112
*1320 FILLER_6_96
*1321 FILLER_7_2
*1322 FILLER_7_25
*1323 FILLER_7_4
*1324 FILLER_7_33
*1325 FILLER_6_75
*1326 place558
*1327 place559
*1328 FILLER_6_54
*1329 FILLER_6_38
*1330 FILLER_6_68
*1331 place560
*1332 FILLER_6_30
*1333 FILLER_6_24
*1334 FILLER_6_36
*1335 clkbuf_0_clk
*1336 place564
*1337 place561
*1338 place565
*1339 FILLER_6_11
*1340 FILLER_6_5
*1341 FILLER_6_13
*1342 wire291
*1343 wire292
*1344 max_cap293
*1345 wire294
*1346 max_cap295
*1347 wire296
*1348 max_cap297
*1349 place563
*1350 place562
*1351 place566
*1352 FILLER_5_127
*1353 FILLER_5_140
*1354 FILLER_5_57
*1355 place567
*1356 FILLER_5_85
*1357 FILLER_5_71
*1358 FILLER_5_108
*1359 place568
*1360 FILLER_5_47
*1361 FILLER_5_13
*1362 FILLER_5_40
*1363 place569
*1364 FILLER_5_5
*1365 place570
*1366 FILLER_5_11
*1367 place572
*1368 FILLER_4_143
*1369 place571
*1370 FILLER_4_105
*1371 place573
*1372 FILLER_4_129
*1373 place574
*1374 FILLER_4_8
*1375 FILLER_4_52
*1376 FILLER_4_22
*1377 FILLER_4_80
*1378 FILLER_4_56
*1379 FILLER_4_71
*1380 FILLER_4_86
*1381 FILLER_3_101
*1382 FILLER_3_91
*1383 place575
*1384 FILLER_3_118
*1385 FILLER_3_108
*1386 FILLER_3_145
*1387 FILLER_3_147
*1388 max_cap337
*1389 wire338
*1390 place576
*1391 FILLER_3_56
*1392 FILLER_3_82
*1393 FILLER_3_76
*1394 FILLER_3_84
*1395 place577
*1396 FILLER_3_2
*1397 place578
*1398 FILLER_3_24
*1399 place579
*1400 place580
*1401 place581
*1402 place583
*1403 place588
*1404 place587
*1405 FILLER_2_146
*1406 place584
*1407 place585
*1408 place586
*1409 FILLER_2_132
*1410 place589
*1411 FILLER_2_137
*1412 place590
*1413 FILLER_2_116
*1414 place591
*1415 FILLER_2_126
*1416 FILLER_2_107
*1417 place592
*1418 FILLER_2_69
*1419 FILLER_2_109
*1420 place593
*1421 FILLER_2_49
*1422 place594
*1423 FILLER_2_57
*1424 FILLER_2_55
*1425 FILLER_2_67
*1426 place595
*1427 FILLER_2_11
*1428 place596
*1429 FILLER_2_13
*1430 FILLER_1_140
*1431 place597
*1432 FILLER_1_134
*1433 FILLER_2_5
*1434 place598
*1435 FILLER_1_102
*1436 FILLER_1_106
*1437 FILLER_1_112
*1438 place599
*1439 FILLER_1_24
*1440 FILLER_1_2
*1441 FILLER_1_52
*1442 FILLER_1_31
*1443 FILLER_1_97
*1444 place600
*1445 FILLER_0_104
*1446 place601
*1447 FILLER_0_133
*1448 FILLER_0_122
*1449 FILLER_0_143
*1450 place602
*1451 place603
*1452 wire614
*1453 FILLER_0_68
*1454 place604
*1455 wire613
*1456 place611
*1457 place610
*1458 FILLER_0_64
*1459 FILLER_0_75
*1460 FILLER_0_88
*1461 FILLER_0_95
*1462 place609
*1463 place608
*1464 place606
*1465 place607
*1466 FILLER_0_31
*1467 FILLER_0_41
*1468 wire615
*1469 wire619
*1470 wire628
*1471 wire612
*1472 wire632
*1473 wire626
*1474 wire634
*1475 wire526
*1476 max_cap525
*1477 wire621
*1478 place582
*1479 wire616
*1480 FILLER_0_24
*1481 place530
*1482 FILLER_0_54
*1483 FILLER_0_47
*1484 wire640
*1485 FILLER_0_14
*1486 place531
*1487 FILLER_14_112
*1488 FILLER_14_121
*1489 FILLER_14_146
*1490 FILLER_15_5
*1491 FILLER_15_9
*1492 FILLER_15_16
*1493 FILLER_15_24
*1494 FILLER_15_54
*1495 FILLER_15_141
*1496 FILLER_16_2
*1497 FILLER_16_6
*1498 FILLER_16_10
*1499 FILLER_16_16
*1500 FILLER_16_24
*1501 FILLER_16_47
*1502 FILLER_16_54
*1503 FILLER_16_66
*1504 FILLER_16_88
*1505 FILLER_16_95
*1506 FILLER_16_101
*1507 FILLER_16_129
*1508 FILLER_16_131
*1509 FILLER_16_144
*1510 FILLER_17_8
*1511 FILLER_17_21
*1512 FILLER_17_28
*1513 FILLER_17_43
*1514 FILLER_17_53
*1515 FILLER_17_61
*1516 FILLER_17_95
*1517 FILLER_17_109
*1518 FILLER_17_111
*1519 FILLER_18_22
*1520 FILLER_18_37
*1521 FILLER_18_47
*1522 FILLER_18_57
*1523 FILLER_18_66
*1524 FILLER_18_84
*1525 FILLER_18_109
*1526 FILLER_18_111
*1527 FILLER_18_121
*1528 FILLER_18_125
*1529 FILLER_18_129
*1530 FILLER_18_135
*1531 FILLER_18_139
*1532 FILLER_19_2
*1533 FILLER_19_27
*1534 FILLER_19_36
*1535 FILLER_19_66
*1536 FILLER_19_76
*1537 FILLER_19_87
*1538 FILLER_19_129
*1539 FILLER_20_2
*1540 FILLER_20_6
*1541 FILLER_20_25
*1542 FILLER_20_34
*1543 FILLER_20_42
*1544 FILLER_20_52
*1545 FILLER_20_54
*1546 FILLER_20_82
*1547 FILLER_20_92
*1548 FILLER_20_99
*1549 FILLER_20_107
*1550 FILLER_20_112
*1551 FILLER_20_123
*1552 FILLER_20_131
*1553 FILLER_20_142
*1554 FILLER_20_147
*1555 FILLER_21_2
*1556 FILLER_21_12
*1557 FILLER_21_14
*1558 FILLER_21_27
*1559 FILLER_21_58
*1560 FILLER_21_63
*1561 FILLER_21_70
*1562 FILLER_21_81
*1563 FILLER_21_111
*1564 FILLER_21_117
*1565 FILLER_21_119
*1566 FILLER_21_146
*1567 FILLER_22_2
*1568 FILLER_22_8
*1569 FILLER_22_45
*1570 FILLER_22_55
*1571 FILLER_22_61
*1572 FILLER_22_81
*1573 FILLER_22_112
*1574 FILLER_22_121
*1575 FILLER_22_134
*1576 FILLER_22_138
*1577 FILLER_22_140
*1578 FILLER_22_146
*1579 FILLER_23_5
*1580 FILLER_23_7
*1581 FILLER_23_29
*1582 FILLER_23_46
*1583 FILLER_23_61
*1584 FILLER_23_63
*1585 FILLER_23_87
*1586 FILLER_23_104
*1587 FILLER_23_111
*1588 FILLER_23_147
*1589 FILLER_24_8
*1590 FILLER_24_14
*1591 FILLER_24_44
*1592 FILLER_24_46
*1593 FILLER_24_56
*1594 FILLER_24_66
*1595 FILLER_24_95
*1596 FILLER_24_99
*1597 FILLER_24_103
*1598 FILLER_24_117
*1599 FILLER_24_122
*1600 FILLER_24_128
*1601 FILLER_24_130
*1602 FILLER_24_134
*1603 FILLER_25_5
*1604 FILLER_25_15
*1605 FILLER_25_42
*1606 FILLER_25_49
*1607 FILLER_25_63
*1608 FILLER_25_72
*1609 FILLER_25_78
*1610 FILLER_25_93
*1611 FILLER_25_110
*1612 FILLER_25_143
*1613 FILLER_25_147
*1614 FILLER_26_2
*1615 FILLER_26_24
*1616 FILLER_26_36
*1617 FILLER_26_40
*1618 FILLER_26_50
*1619 FILLER_26_65
*1620 FILLER_26_81
*1621 FILLER_26_83
*1622 FILLER_26_128
*1623 FILLER_26_142
*1624 FILLER_27_2
*1625 FILLER_27_24
*1626 FILLER_27_38
*1627 FILLER_27_47
*1628 FILLER_27_86
*1629 FILLER_27_129
*1630 FILLER_27_143
*1631 FILLER_27_147
*1632 FILLER_28_2
*1633 FILLER_28_4
*1634 FILLER_28_14
*1635 FILLER_28_24
*1636 FILLER_28_32
*1637 FILLER_28_65
*1638 FILLER_28_82
*1639 FILLER_28_96
*1640 FILLER_28_102
*1641 FILLER_28_106
*1642 FILLER_28_124
*1643 FILLER_28_146

*PORTS
clk I
debug_reg_addr[0] I
debug_reg_addr[1] I
debug_reg_addr[2] I
debug_reg_addr[3] I
debug_reg_data[0] O
debug_reg_data[10] O
debug_reg_data[11] O
debug_reg_data[12] O
debug_reg_data[13] O
debug_reg_data[14] O
debug_reg_data[15] O
debug_reg_data[16] O
debug_reg_data[17] O
debug_reg_data[18] O
debug_reg_data[19] O
debug_reg_data[1] O
debug_reg_data[20] O
debug_reg_data[21] O
debug_reg_data[22] O
debug_reg_data[23] O
debug_reg_data[24] O
debug_reg_data[25] O
debug_reg_data[26] O
debug_reg_data[27] O
debug_reg_data[28] O
debug_reg_data[29] O
debug_reg_data[2] O
debug_reg_data[30] O
debug_reg_data[31] O
debug_reg_data[32] O
debug_reg_data[33] O
debug_reg_data[34] O
debug_reg_data[35] O
debug_reg_data[36] O
debug_reg_data[37] O
debug_reg_data[38] O
debug_reg_data[39] O
debug_reg_data[3] O
debug_reg_data[40] O
debug_reg_data[41] O
debug_reg_data[42] O
debug_reg_data[43] O
debug_reg_data[44] O
debug_reg_data[45] O
debug_reg_data[46] O
debug_reg_data[47] O
debug_reg_data[48] O
debug_reg_data[49] O
debug_reg_data[4] O
debug_reg_data[50] O
debug_reg_data[51] O
debug_reg_data[52] O
debug_reg_data[53] O
debug_reg_data[5] O
debug_reg_data[6] O
debug_reg_data[7] O
debug_reg_data[8] O
debug_reg_data[9] O
halted O
ipc_out[0] O
ipc_out[1] O
pc_out[0] O
pc_out[10] O
pc_out[11] O
pc_out[12] O
pc_out[13] O
pc_out[14] O
pc_out[15] O
pc_out[1] O
pc_out[2] O
pc_out[3] O
pc_out[4] O
pc_out[5] O
pc_out[6] O
pc_out[7] O
pc_out[8] O
pc_out[9] O
prog_addr[0] I
prog_addr[1] I
prog_addr[2] I
prog_addr[3] I
prog_addr[4] I
prog_addr[5] I
prog_addr[6] I
prog_addr[7] I
prog_data[0] I
prog_data[10] I
prog_data[11] I
prog_data[12] I
prog_data[13] I
prog_data[14] I
prog_data[15] I
prog_data[16] I
prog_data[17] I
prog_data[1] I
prog_data[2] I
prog_data[3] I
prog_data[4] I
prog_data[5] I
prog_data[6] I
prog_data[7] I
prog_data[8] I
prog_data[9] I
prog_mode I
prog_we I
rst_n I
valid_out_a O
valid_out_b O

*D_NET *1 0.000107808
*CONN
*I *763:A I *D INVx1_ASAP7_75t_R
*I *1055:QN O *D DFFASRHQNx1_ASAP7_75t_R
*CAP
1 *763:A 1.86314e-05
2 *1055:QN 1.90853e-05
3 *1:8 3.77167e-05
4 *763:A *382:6 3.68287e-06
5 *763:A *382:12 1.34257e-05
6 *763:A *672:10 1.52665e-05
*RES
1 *1055:QN *1:8 42.4224 
2 *1:8 *763:A 49.9703 
*END

*D_NET *2 4.81294e-05
*CONN
*I *764:A I *D INVx1_ASAP7_75t_R
*I *1037:QN O *D DFFASRHQNx1_ASAP7_75t_R
*CAP
1 *764:A 0
2 *1037:QN 2.01774e-05
3 *2:10 2.01774e-05
4 *2:10 *1037:RESETN 3.81627e-06
5 *2:10 *364:8 3.95845e-06
6 *2:10 *539:102 0
7 *2:10 *539:189 0
8 *2:10 *728:10 0
9 *2:10 *728:20 0
*RES
1 *1037:QN *2:10 48.9006 
2 *2:10 *764:A 34.4 
*END

*D_NET *3 3.80766e-05
*CONN
*I *1465:A I *D BUFx6f_ASAP7_75t_R
*I *1038:QN O *D DFFASRHQNx1_ASAP7_75t_R
*CAP
1 *1465:A 1.36171e-05
2 *1038:QN 5.42126e-06
3 *3:8 1.90383e-05
4 *1465:A *737:6 0
*RES
1 *1038:QN *3:8 37.779 
2 *3:8 *1465:A 40.8179 
*END

*D_NET *4 1.13249e-05
*CONN
*I *769:A I *D INVx1_ASAP7_75t_R
*I *1041:QN O *D DFFASRHQNx1_ASAP7_75t_R
*CAP
1 *769:A 5.66247e-06
2 *1041:QN 5.66247e-06
*RES
1 *1041:QN *769:A 37.0741 
*END

*D_NET *5 6.77662e-05
*CONN
*I *771:A I *D INVx1_ASAP7_75t_R
*I *1043:QN O *D DFFASRHQNx1_ASAP7_75t_R
*CAP
1 *771:A 7.54604e-06
2 *1043:QN 1.04177e-05
3 *5:8 1.79638e-05
4 *771:A *323:8 9.08513e-06
5 *771:A *539:145 1.04475e-06
6 *5:8 *123:14 5.75209e-06
7 *5:8 *322:12 8.2174e-07
8 *5:8 *323:10 1.51349e-05
*RES
1 *1043:QN *5:8 46.2265 
2 *5:8 *771:A 38.1438 
*END

*D_NET *6 1.98469e-05
*CONN
*I *773:A I *D INVx1_ASAP7_75t_R
*I *1045:QN O *D DFFASRHQNx1_ASAP7_75t_R
*CAP
1 *773:A 0
2 *1045:QN 7.89197e-06
3 *6:10 7.89197e-06
4 *6:10 *130:8 0
5 *6:10 *325:12 7.84037e-07
6 *6:10 *325:23 3.2789e-06
*RES
1 *1045:QN *6:10 39.3835 
2 *6:10 *773:A 34.4 
*END

*D_NET *7 1.36137e-05
*CONN
*I *778:A I *D INVx1_ASAP7_75t_R
*I *1050:QN O *D DFFASRHQNx1_ASAP7_75t_R
*CAP
1 *778:A 6.51359e-06
2 *1050:QN 6.51359e-06
3 *778:A *365:37 5.86507e-07
*RES
1 *1050:QN *778:A 37.0741 
*END

*D_NET *8 2.48876e-05
*CONN
*I *780:A I *D INVx1_ASAP7_75t_R
*I *1052:QN O *D DFFASRHQNx1_ASAP7_75t_R
*CAP
1 *780:A 0
2 *1052:QN 1.21539e-05
3 *8:10 1.21539e-05
4 *8:10 *955:B 5.79724e-07
5 *8:10 *365:97 0
*RES
1 *1052:QN *8:10 40.4531 
2 *8:10 *780:A 34.4 
*END

*D_NET *9 4.54134e-05
*CONN
*I *782:A I *D INVx1_ASAP7_75t_R
*I *1054:QN O *D DFFASRHQNx1_ASAP7_75t_R
*CAP
1 *782:A 0
2 *1054:QN 2.27067e-05
3 *9:10 2.27067e-05
*RES
1 *1054:QN *9:10 48.9006 
2 *9:10 *782:A 34.4 
*END

*D_NET *10 7.40481e-05
*CONN
*I *1407:A I *D BUFx3_ASAP7_75t_R
*I *762:Y O *D INVx1_ASAP7_75t_R
*CAP
1 *1407:A 3.25643e-06
2 *762:Y 1.26909e-05
3 *10:8 1.59473e-05
4 *1407:A *761:A 5.0551e-07
5 *10:8 *722:18 5.52807e-07
6 *10:8 *722:22 2.53992e-06
7 *10:8 *729:50 3.85552e-05
*RES
1 *762:Y *10:8 47.3528 
2 *10:8 *1407:A 36.0045 
*END

*D_NET *11 9.43973e-05
*CONN
*I *949:B I *D HAxp5_ASAP7_75t_R
*I *1408:A I *D BUFx3_ASAP7_75t_R
*I *759:Y O *D INVx1_ASAP7_75t_R
*CAP
1 *949:B 1.53372e-05
2 *1408:A 0
3 *759:Y 5.47701e-06
4 *11:6 2.08142e-05
5 *949:B *762:A 1.60115e-05
6 *949:B *700:21 1.06092e-05
7 *949:B *716:39 2.40094e-05
8 *11:6 *680:8 1.40419e-08
9 *11:6 *716:39 2.12481e-06
*RES
1 *759:Y *11:6 19.8741 
2 *11:6 *1408:A 17.2 
3 *11:6 *949:B 34.8492 
*END

*D_NET *12 9.60587e-05
*CONN
*I *1389:A I *D BUFx2_ASAP7_75t_R
*I *925:CON O *D FAx1_ASAP7_75t_R
*CAP
1 *1389:A 0
2 *925:CON 3.66734e-05
3 *12:9 3.66734e-05
4 *12:9 *886:B 8.21017e-06
5 *12:9 *138:8 0
6 *12:9 *138:14 0
7 *12:9 *661:12 0
8 *12:9 *723:18 1.45017e-05
*RES
1 *925:CON *12:9 45.5123 
2 *12:9 *1389:A 34.4 
*END

*D_NET *13 5.04837e-05
*CONN
*I *1484:A I *D BUFx2_ASAP7_75t_R
*I *925:SN O *D FAx1_ASAP7_75t_R
*CAP
1 *1484:A 4.43713e-06
2 *925:SN 1.46343e-05
3 *13:10 1.90715e-05
4 *1484:A *409:14 1.23408e-05
5 *13:10 *667:8 0
6 *13:10 *722:22 0
*RES
1 *925:SN *13:10 42.6491 
2 *13:10 *1484:A 38.1438 
*END

*D_NET *14 1.49466e-05
*CONN
*I *1428:A I *D BUFx3_ASAP7_75t_R
*I *952:CON O *D HAxp5_ASAP7_75t_R
*CAP
1 *1428:A 0
2 *952:CON 5.81041e-06
3 *14:8 5.81041e-06
4 *14:8 *82:8 3.32579e-06
5 *14:8 *140:8 0
*RES
1 *952:CON *14:8 40.0317 
2 *14:8 *1428:A 34.4 
*END

*D_NET *15 1.40785e-05
*CONN
*I *1446:A I *D BUFx3_ASAP7_75t_R
*I *945:CON O *D HAxp5_ASAP7_75t_R
*CAP
1 *1446:A 0
2 *945:CON 7.03926e-06
3 *15:8 7.03926e-06
4 *15:8 *734:36 0
*RES
1 *945:CON *15:8 40.0317 
2 *15:8 *1446:A 34.4 
*END

*D_NET *16 6.83783e-05
*CONN
*I *926:CI I *D FAx1_ASAP7_75t_R
*I *761:Y O *D INVx1_ASAP7_75t_R
*CAP
1 *926:CI 0
2 *761:Y 2.99573e-05
3 *16:10 2.99573e-05
4 *16:10 *674:16 8.46363e-06
5 *16:10 *716:51 0
*RES
1 *761:Y *16:10 49.5168 